<?xml version="1.0" encoding="UTF-8"?>

<!-- generated on 2024-09-23 10:15:08 by Eclipse SUMO polyconvert Version 1.20.0
<configuration xmlns:xsi="http://www.w3.org/2001/XMLSchema-instance" xsi:noNamespaceSchemaLocation="http://sumo.dlr.de/xsd/polyconvertConfiguration.xsd">

    <input>
        <net-file value="test.net.xml"/>
        <osm-files value="map1.osm"/>
        <type-file value="typemap.xml"/>
    </input>

    <output>
        <output-file value="map.poly.xml"/>
    </output>

    <report>
        <xml-validation value="never"/>
    </report>

</configuration>
-->

<additional xmlns:xsi="http://www.w3.org/2001/XMLSchema-instance" xsi:noNamespaceSchemaLocation="http://sumo.dlr.de/xsd/additional_file.xsd">
    <location netOffset="-779358.76,-3307028.12" convBoundary="-241.94,-238.05,1078.61,1193.76" origBoundary="77.889455,29.859807,77.902960,29.872894" projParameter="+proj=utm +zone=43 +ellps=WGS84 +datum=WGS84 +units=m +no_defs"/>

    <poly id="1080933904" type="tourism" color="207,245,201" fill="1" layer="-2.00" shape="240.592789,302.484102 239.643266,279.127852 260.381257,277.774968 261.309519,301.973894 240.592789,302.484102"/>
    <poly id="1080933905" type="tourism" color="207,245,201" fill="0" layer="-2.00" shape="32.222943,293.900381 45.256751,290.888771 39.481104,283.687186 44.567770,277.147205 83.617280,275.944060 75.402417,258.074475 75.984395,248.780604 90.290971,249.761900 120.040632,249.600763 120.199260,253.288221 123.978760,253.350052 123.828866,245.857304 127.956352,246.693433 127.964054,250.998401 137.839520,252.833490 137.435863,260.034938 125.718541,258.763708 125.679904,261.835990 130.469081,263.276796 132.012231,276.119007 131.640556,293.961153 128.763398,296.085510 127.992863,304.032169 134.883718,303.806182 137.540482,308.133442 135.812378,311.862175 130.250160,315.394560 130.964890,324.266182"/>
    <poly id="1080933906" type="building" color="255,230,230" fill="1" layer="-1.00" shape="160.883879,421.100036 160.873962,413.810513 189.381193,413.818038 189.378191,385.126843 150.997535,385.125988 151.001401,356.157607 219.794471,356.169620 235.022753,366.627084 231.182530,413.916252 194.578180,410.964368 184.788535,421.091554 160.883879,421.100036"/>
    <poly id="1080933915" type="building" color="255,230,230" fill="1" layer="-1.00" shape="717.054833,511.035389 720.516171,476.551161 732.375762,469.106087 775.674280,480.006131 778.408737,495.042064 766.720478,526.744748 717.054833,511.035389"/>
    <poly id="1080933918" type="leisure" color="207,245,201" fill="1" layer="-2.00" shape="512.418526,498.320389 506.916672,444.970965 530.818098,442.023020 536.913857,495.975463 512.418526,498.320389"/>
    <poly id="1221486509" type="building" color="255,230,230" fill="1" layer="-1.00" shape="158.263623,450.668252 157.715168,435.576634 209.697572,435.731341 210.008439,451.038883 158.263623,450.668252"/>
    <poly id="1221486510" type="building" color="255,230,230" fill="1" layer="-1.00" shape="233.901708,474.140680 233.255425,453.721083 244.007905,452.593869 243.679529,474.852852 233.901708,474.140680"/>
    <poly id="1221528028" type="residential" color="235,235,227" fill="1" layer="-3.00" shape="795.867718,537.409961 779.382117,601.732505 784.199194,610.108602 814.477182,613.124777 979.525228,629.572452 970.367650,562.927367 795.867718,537.409961"/>
    <poly id="1221528030" type="residential" color="235,235,227" fill="1" layer="-3.00" shape="855.761116,310.655634 969.668472,187.625875 835.867100,62.372412 803.046666,160.466084 802.770004,181.783398 802.237949,190.224248 798.922140,208.580235 795.465813,218.323078 790.255706,229.353062 781.530307,242.113927 775.606479,249.619941 812.889381,278.597137 855.761116,310.655634"/>
    <poly id="1221528040" type="amenity" color="237,199,199" fill="1" layer="-1.00" shape="737.679111,191.358451 746.416104,191.556619 746.188779,201.336534 737.451794,201.138366 737.679111,191.358451"/>
    <poly id="1221528040#1" type="building" color="255,230,230" fill="1" layer="-1.00" shape="737.679111,191.358451 746.416104,191.556619 746.188779,201.336534 737.451794,201.138366 737.679111,191.358451"/>
    <poly id="1221528045" type="amenity" color="237,199,199" fill="1" layer="-1.00" shape="799.359541,189.707842 802.237949,190.224248 799.986158,200.518934 797.130997,199.847787 799.359541,189.707842"/>
    <poly id="1221528045#1" type="building" color="255,230,230" fill="1" layer="-1.00" shape="799.359541,189.707842 802.237949,190.224248 799.986158,200.518934 797.130997,199.847787 799.359541,189.707842"/>
    <poly id="1221528046" type="landuse" color="194,194,130" fill="1" layer="-3.00" shape="860.315918,354.340056 834.463965,409.284060 795.867718,537.409961 970.367650,562.927367 950.395847,470.346897 925.703024,422.270887 905.666404,392.385995 860.315918,354.340056"/>
    <poly id="1221528047" type="unknown" color="51,128,255" fill="0" layer="-1.00" shape="772.148313,236.818020 775.227884,238.559927 776.286341,239.152463 781.530307,242.113927 790.255706,229.353062 795.465813,218.323078 798.922140,208.580235 802.237949,190.224248 802.770004,181.783398 803.046666,160.466084"/>
    <poly id="1221667577" type="building" color="255,230,230" fill="1" layer="-1.00" shape="244.308027,185.261331 286.283424,186.162872 286.494086,171.267870 244.325869,171.493147 244.308027,185.261331"/>
    <poly id="1221669045" type="leisure" color="207,245,201" fill="1" layer="-2.00" shape="301.237695,210.581854 314.070818,207.099507 321.019600,196.512546 323.419521,177.245848 320.710632,120.461031 293.293792,121.667846 295.492649,186.039733 298.967067,187.081375 301.237695,210.581854"/>
    <poly id="1221671739" type="building" color="255,230,230" fill="1" layer="-1.00" shape="471.474064,186.378530 471.424229,168.015360 456.395728,168.047211 456.353051,154.388424 466.130552,154.357404 466.064236,132.809611 456.035447,132.834302 456.021554,128.396028 440.896081,128.436556 441.011604,169.911860 416.215292,169.975049 416.262426,186.529688 471.474064,186.378530"/>
    <poly id="1221679884" type="leisure" color="207,245,201" fill="1" layer="-2.00" shape="768.660793,239.747847 773.800019,232.676927 786.984167,192.668643 734.696846,189.208501 735.806811,218.049793 768.660793,239.747847"/>
    <poly id="1221680371" type="water" color="181,209,209" fill="1" layer="-4.00" shape="777.660514,193.875785 777.453741,196.322530 781.046894,197.256373 781.939546,194.838025 777.660514,193.875785"/>
    <poly id="1221681358" type="amenity" color="237,199,199" fill="1" layer="-1.00" shape="771.851409,276.574451 765.040444,269.412897 760.009688,274.101165 766.884510,281.031334 771.851409,276.574451"/>
    <poly id="1221681693" type="natural" color="140,196,107" fill="0" layer="-4.00" shape="768.326673,248.393397 753.034971,239.309333 739.121956,229.239339 724.572670,220.240612 703.244214,218.537774 688.863492,217.809001 664.765005,217.811559"/>
    <poly id="1221682202" type="building" color="255,230,230" fill="1" layer="-1.00" shape="592.649929,242.121762 592.288878,265.267561 586.430743,265.186458 586.792061,242.029571 592.649929,242.121762"/>
    <poly id="1221682551" type="parking" color="184,184,179" fill="1" layer="-1.00" shape="813.182739,304.533199 793.692379,289.773528 796.771175,286.178803 815.728614,300.980508 813.182739,304.533199"/>
    <poly id="1221682552" type="amenity" color="237,199,199" fill="1" layer="-1.00" shape="792.262188,288.583585 794.513911,284.424347 785.316891,276.780983 782.724534,280.643164 792.262188,288.583585"/>
    <poly id="1221684431" type="parking" color="184,184,179" fill="1" layer="-1.00" shape="804.559359,252.303002 800.165598,250.139613 790.774245,241.381860 793.501602,236.768636 800.388240,225.980654 805.022959,229.326174 815.847072,236.489142 807.844066,248.979749 804.559359,252.303002"/>
    <poly id="1221685741" type="residential" color="235,235,227" fill="1" layer="-3.00" shape="776.539723,275.494470 782.724534,280.643164 792.262188,288.583585 793.692379,289.773528 831.767497,321.455747 839.836495,331.644701 842.095564,342.141957 812.946448,397.457699 808.933589,395.914127 780.239186,384.916402 719.567060,335.511792 776.539723,275.494470"/>
    <poly id="1221706345" type="parking" color="184,184,179" fill="1" layer="-1.00" shape="641.997056,227.944012 647.515396,238.434621 654.262616,235.087680 650.634018,228.272723 641.997056,227.944012"/>
    <poly id="1221809487" type="residential" color="235,235,227" fill="1" layer="-3.00" shape="620.647176,228.626178 637.937271,227.874939 654.022744,227.725759 659.710499,228.812230 684.921092,229.958285 703.972104,230.704975 711.567015,230.940887 718.485067,232.324691 725.284977,235.325367 729.956657,237.972812 735.131618,241.753531 739.301972,246.640588 741.388880,253.616404 741.630090,260.922893 735.326166,304.588519 695.638827,328.772890 691.988633,298.658211 690.372571,285.281465 681.137207,282.607713 654.665588,288.907776 652.902411,252.982632 623.321808,253.335222 623.179995,244.000896 620.669834,243.837759 620.647176,228.626178"/>
    <poly id="1221809492" type="amenity" color="237,199,199" fill="1" layer="-1.00" shape="659.927155,282.350259 658.431092,269.198445 653.959316,270.128607 654.835921,283.686405 659.927155,282.350259"/>
    <poly id="1221809511" type="unknown" color="51,128,255" fill="0" layer="-1.00" shape="808.933589,395.914127 807.405866,400.890456 801.970266,418.560556 793.808512,457.663699"/>
    <poly id="1221809521" type="amenity" color="237,199,199" fill="1" layer="-1.00" shape="665.268920,286.035298 665.118861,282.015185 654.906963,284.320601 655.279859,288.324143 665.268920,286.035298"/>
    <poly id="1221813682" type="leisure" color="207,245,201" fill="1" layer="-2.00" shape="613.467476,564.030505 611.125032,538.808365 600.308548,539.789374 602.650736,565.022598 613.467476,564.030505"/>
    <poly id="1221813682#1" type="sport" color="79,230,125" fill="1" layer="-2.00" shape="613.467476,564.030505 611.125032,538.808365 600.308548,539.789374 602.650736,565.022598 613.467476,564.030505"/>
    <poly id="1221813683" type="leisure" color="207,245,201" fill="1" layer="-2.00" shape="705.979772,555.623601 703.637531,530.401426 692.821022,531.382346 695.163007,556.615606 705.979772,555.623601"/>
    <poly id="1221813683#1" type="sport" color="79,230,125" fill="1" layer="-2.00" shape="705.979772,555.623601 703.637531,530.401426 692.821022,531.382346 695.163007,556.615606 705.979772,555.623601"/>
    <poly id="1221813684" type="leisure" color="207,245,201" fill="1" layer="-2.00" shape="657.787861,560.854344 655.445515,535.632187 644.629020,536.613153 646.971110,561.846395 657.787861,560.854344"/>
    <poly id="1221813684#1" type="sport" color="79,230,125" fill="1" layer="-2.00" shape="657.787861,560.854344 655.445515,535.632187 644.629020,536.613153 646.971110,561.846395 657.787861,560.854344"/>
    <poly id="1221813685" type="leisure" color="207,245,201" fill="1" layer="-2.00" shape="639.085066,563.578044 636.742680,538.355894 625.926191,539.336878 628.268321,564.570112 639.085066,563.578044"/>
    <poly id="1221813685#1" type="sport" color="79,230,125" fill="1" layer="-2.00" shape="639.085066,563.578044 636.742680,538.355894 625.926191,539.336878 628.268321,564.570112 639.085066,563.578044"/>
    <poly id="1221813686" type="leisure" color="207,245,201" fill="1" layer="-2.00" shape="675.118868,559.227754 672.776561,534.005590 661.960061,534.986540 664.302113,560.219788 675.118868,559.227754"/>
    <poly id="1221813686#1" type="sport" color="79,230,125" fill="1" layer="-2.00" shape="675.118868,559.227754 672.776561,534.005590 661.960061,534.986540 664.302113,560.219788 675.118868,559.227754"/>
    <poly id="1221956791" type="building" color="255,230,230" fill="1" layer="-1.00" shape="719.925829,276.041406 717.638687,273.553955 719.171580,272.205759 721.521897,274.872321 719.925829,276.041406"/>
    <poly id="1221956793" type="building" color="255,230,230" fill="1" layer="-1.00" shape="694.585779,256.640991 692.811700,254.898744 694.587996,253.101794 696.362074,254.844042 694.585779,256.640991"/>
    <poly id="1221956798" type="building" color="255,230,230" fill="1" layer="-1.00" shape="687.661037,246.702913 692.172657,249.945427 690.273123,252.027734 686.617503,247.819367 687.661037,246.702913"/>
    <poly id="1221956800" type="building" color="255,230,230" fill="1" layer="-1.00" shape="702.384003,253.032117 700.518474,251.465079 701.264536,250.640686 703.091408,252.206749 702.384003,253.032117"/>
    <poly id="1222008021" type="parking" color="184,184,179" fill="1" layer="-1.00" shape="521.606531,246.178080 526.730642,246.606779 528.117889,229.932944 522.983827,229.515089 521.606531,246.178080"/>
    <poly id="1222008023" type="tourism" color="207,245,201" fill="1" layer="-2.00" shape="216.478235,227.464253 217.464520,253.972339 150.713925,254.622024 151.295066,229.995143 216.478235,227.464253"/>
    <poly id="1222043103" type="unknown" color="51,128,255" fill="0" layer="-1.00" shape="620.647176,228.626178 597.569775,228.787760"/>
    <poly id="1222165043" type="unknown" color="51,128,255" fill="0" layer="-1.00" shape="713.059551,260.335467 706.443407,266.537052 705.595726,265.639182 704.446725,266.719690 703.193831,265.401093 702.371576,266.179185 696.522539,259.984998"/>
    <poly id="1222165044" type="unknown" color="51,128,255" fill="0" layer="-1.00" shape="716.634078,280.795738 708.356586,271.966296 709.258112,271.112539 708.155930,269.953070 709.473136,268.721477 708.719580,267.925835 714.880547,262.134376"/>
    <poly id="1222165045" type="unknown" color="51,128,255" fill="0" layer="-1.00" shape="696.347141,280.361789 701.619031,275.313448 702.895621,274.158494 703.762351,275.067938 704.891464,274.009119 706.116202,275.293722 706.938737,274.504542 714.467706,282.338760"/>
    <poly id="1222165046" type="unknown" color="51,128,255" fill="0" layer="-1.00" shape="694.117237,261.799369 697.104713,264.892502 700.412939,268.304380 699.540686,269.147780 700.614994,270.262166 699.316838,271.505336 700.136925,272.347035 694.170372,278.099023"/>
    <poly id="1222250486" type="amenity" color="237,199,199" fill="1" layer="-1.00" shape="531.278094,246.510585 531.608905,228.012764 565.400926,228.620376 565.060115,247.129045 531.278094,246.510585"/>
    <poly id="1222259233" type="leisure" color="207,245,201" fill="1" layer="-2.00" shape="485.475671,531.402906 508.232395,531.277454 507.336407,567.978733 485.342760,567.757282 485.475671,531.402906"/>
    <poly id="1222259233#1" type="sport" color="79,230,125" fill="1" layer="-2.00" shape="485.475671,531.402906 508.232395,531.277454 507.336407,567.978733 485.342760,567.757282 485.475671,531.402906"/>
    <poly id="1222259234" type="leisure" color="207,245,201" fill="1" layer="-2.00" shape="405.734078,496.963472 312.381946,488.421075 310.592785,499.947892 403.421286,510.463063 405.734078,496.963472"/>
    <poly id="1222259236" type="leisure" color="207,245,201" fill="1" layer="-2.00" shape="485.342760,567.757282 463.465083,567.538796 464.044022,531.517417 485.475671,531.402906 485.342760,567.757282"/>
    <poly id="1222259236#1" type="sport" color="79,230,125" fill="1" layer="-2.00" shape="485.342760,567.757282 463.465083,567.538796 464.044022,531.517417 485.475671,531.402906 485.342760,567.757282"/>
    <poly id="1222260262" type="unknown" color="51,128,255" fill="0" layer="-1.00" shape="513.484720,520.858655 513.780128,523.717470 515.137477,536.621674 509.858589,561.906865"/>
    <poly id="1222262591" type="sport" color="79,230,125" fill="1" layer="-2.00" shape="413.532904,497.925499 412.952270,459.944426 392.160611,458.832594 388.848830,496.249617 413.532904,497.925499"/>
    <poly id="1222262592" type="leisure" color="207,245,201" fill="1" layer="-2.00" shape="388.848830,496.249617 392.160611,458.832594 369.092228,456.354263 365.558032,492.622917 388.848830,496.249617"/>
    <poly id="1222262592#1" type="sport" color="79,230,125" fill="1" layer="-2.00" shape="388.848830,496.249617 392.160611,458.832594 369.092228,456.354263 365.558032,492.622917 388.848830,496.249617"/>
    <poly id="1222262596" type="leisure" color="207,245,201" fill="1" layer="-2.00" shape="439.168129,497.927895 438.427258,460.552989 412.952270,459.944426 413.532904,497.925499 439.168129,497.927895"/>
    <poly id="1222262596#1" type="sport" color="79,230,125" fill="1" layer="-2.00" shape="439.168129,497.927895 438.427258,460.552989 412.952270,459.944426 413.532904,497.925499 439.168129,497.927895"/>
    <poly id="1222264004" type="unknown" color="51,128,255" fill="0" layer="-1.00" shape="444.807560,401.911238 445.891910,442.157260 395.794169,445.876636 390.503351,445.543642 384.843071,443.370701 380.916884,438.001762"/>
    <poly id="1222264005" type="unknown" color="51,128,255" fill="0" layer="-1.00" shape="450.553775,402.976893 450.683227,441.590109 499.450103,436.195402"/>
    <poly id="1222266456" type="unknown" color="51,128,255" fill="0" layer="-1.00" shape="456.632436,448.030774 461.397536,516.428345"/>
    <poly id="1222266457" type="unknown" color="51,128,255" fill="0" layer="-1.00" shape="446.741347,448.358475 438.208014,449.297324"/>
    <poly id="1222307607" type="amenity" color="237,199,199" fill="0" layer="-1.00" shape="704.216900,267.013455 703.264311,266.057466 702.700873,266.542524"/>
    <poly id="1222307608" type="amenity" color="237,199,199" fill="0" layer="-1.00" shape="708.000309,269.605206 708.901275,268.773624 708.392834,268.228250"/>
    <poly id="1222307609" type="amenity" color="237,199,199" fill="0" layer="-1.00" shape="706.102087,266.650487 705.575156,266.071362 704.712008,266.937182"/>
    <poly id="1222307610" type="amenity" color="237,199,199" fill="0" layer="-1.00" shape="700.924962,270.625018 699.963775,271.543840 700.416469,271.999049"/>
    <poly id="1222307611" type="amenity" color="237,199,199" fill="0" layer="-1.00" shape="700.616043,268.686726 700.100925,269.173003 700.835993,269.934895"/>
    <poly id="1222307612" type="amenity" color="237,199,199" fill="0" layer="-1.00" shape="703.256549,274.034458 703.765270,274.568744 704.657410,273.703656"/>
    <poly id="1222307613" type="amenity" color="237,199,199" fill="0" layer="-1.00" shape="705.217650,273.728879 706.132141,274.661718 706.627650,274.186041"/>
    <poly id="1222307614" type="amenity" color="237,199,199" fill="0" layer="-1.00" shape="708.210349,271.629763 708.774905,271.100353 707.936609,270.213815"/>
    <poly id="1222452357" type="amenity" color="237,199,199" fill="1" layer="-1.00" shape="703.581356,271.124707 704.364866,271.499500 705.209839,271.354387 705.855623,270.671698 705.927152,269.752630 705.404975,268.985013 704.888705,268.750096 704.016697,268.816864 703.394994,269.311548 703.158616,270.248648 703.581356,271.124707"/>
    <poly id="1222452362" type="leisure" color="207,245,201" fill="1" layer="-2.00" shape="676.817774,276.729478 694.117237,261.799369 700.412939,268.304380 699.540686,269.147780 700.614994,270.262166 699.316838,271.505336 700.136925,272.347035 694.170372,278.099023 688.963512,280.952231 680.516079,280.395273 676.817774,276.729478"/>
    <poly id="1222452363" type="leisure" color="207,245,201" fill="1" layer="-2.00" shape="735.326166,304.588519 695.638827,328.772890 693.548553,291.252913 695.180878,289.796274 696.919159,286.822314 696.877811,283.093407 696.347141,280.361789 701.619031,275.313448 702.895621,274.158494 703.762351,275.067938 704.891464,274.009119 706.116202,275.293722 706.938737,274.504542 714.467706,282.338760 712.717573,283.481770 715.549484,287.758133 714.871196,288.195915 718.224440,293.273161 721.429748,291.179411 723.422644,294.214184 724.920400,296.559685 730.560997,292.996269 729.184401,290.831341 727.667597,288.474264 730.586496,286.617379 732.661055,289.865016 736.100822,287.677329 730.594714,279.006526 730.229592,279.296878 729.269982,277.852536 732.701486,275.609166 731.684606,274.518415 731.961634,274.270220 733.574079,272.835274 729.181516,266.023206 726.803244,267.915916 725.490970,266.651293 719.467867,260.841022 723.617372,256.585401 727.336677,260.185172 728.736512,258.744863 730.359438,259.961847 737.085761,255.527134 734.383586,252.241478 736.406526,250.251048 731.445949,245.255303 729.442897,247.224045 728.661343,246.771635 726.030434,249.478993 720.241375,243.974185 718.633839,245.597870 707.854176,237.437587 697.615456,248.473929 688.740739,240.317325 682.964348,245.430616 672.105998,235.404455 668.656445,237.980233 659.710499,228.812230 684.921092,229.958285 703.972104,230.704975 711.567015,230.940887 718.485067,232.324691 725.284977,235.325367 729.956657,237.972812 735.131618,241.753531 739.301972,246.640588 741.388880,253.616404 741.630090,260.922893 735.326166,304.588519"/>
    <poly id="1222452368" type="leisure" color="207,245,201" fill="1" layer="-2.00" shape="709.858122,255.373002 705.455677,259.688818 700.523525,254.715994 695.982151,259.172542 696.522539,259.984998 702.371576,266.179185 703.193831,265.401093 704.446725,266.719690 705.595726,265.639182 706.443407,266.537052 713.059551,260.335467 713.951133,259.492555 709.858122,255.373002"/>
    <poly id="1222452369" type="leisure" color="207,245,201" fill="1" layer="-2.00" shape="716.634078,280.795738 719.097243,279.371150 713.040208,272.605870 721.122783,266.541126 715.741740,261.346172 714.880547,262.134376 708.719580,267.925835 709.473136,268.721477 708.155930,269.953070 709.258112,271.112539 708.356586,271.966296 716.634078,280.795738"/>
    <poly id="239702023" type="building" color="255,230,230" fill="1" layer="-1.00" shape="387.025848,332.921409 386.949820,329.413535 383.544164,329.483073 383.337695,319.636779 386.733690,319.566998 386.054622,288.173782 383.268013,288.236725 382.664843,260.739700 385.461123,260.677000 385.254535,251.219022 409.017269,250.719237 408.516429,227.607233 437.610589,226.986631 437.711740,231.416008 444.736288,231.260144 444.644523,226.842098 454.310180,226.641834 454.393507,230.626970 459.550641,230.512823 459.467316,226.527686 484.410546,226.002326 484.934404,250.113463 508.300658,249.614993 509.025743,283.006476 510.496363,282.976969 510.663530,290.925071 506.580532,291.010787 507.093655,314.777723 512.260418,314.663847 512.496815,325.620390 507.330337,325.723178 507.409285,329.497406 497.482503,329.702129 497.527730,331.744716 488.965260,331.917259 489.028190,334.792402 487.093144,334.832398 487.174892,338.495748 478.302340,338.693769 478.220868,335.019332 476.014949,335.063599 475.951737,332.199544 456.871869,332.606360 457.080900,341.964555 439.345752,342.349808 439.146649,332.980771 419.950822,333.384728 420.026001,336.925867 417.945996,336.962222 418.037318,341.014129 408.710286,341.211850 408.618960,337.159944 406.538676,337.207390 406.463213,333.677340 398.945587,333.831895 398.926595,332.666462 387.025848,332.921409"/>
    <poly id="239702024" type="building" color="255,230,230" fill="1" layer="-1.00" shape="725.490970,266.651293 726.803244,267.915916 729.181516,266.023206 733.574079,272.835274 731.961634,274.270220 731.684606,274.518415 732.701486,275.609166 729.269982,277.852536 730.229592,279.296878 730.594714,279.006526 733.505208,283.617722 736.100822,287.677329 732.661055,289.865016 730.586496,286.617379 727.667597,288.474264 729.184401,290.831341 730.560997,292.996269 724.920400,296.559685 723.422644,294.214184 721.429748,291.179411 718.224440,293.273161 714.871196,288.195915 715.549484,287.758133 712.717573,283.481770 714.467706,282.338760 715.373303,281.707003 716.634078,280.795738 719.097243,279.371150 717.536342,277.612085 713.040208,272.605870 721.122783,266.541126 717.304601,263.027622 715.741740,261.346172 713.951133,259.492555 709.858122,255.373002 705.455677,259.688818 700.523525,254.715994 695.982151,259.172542 693.832748,261.193074 692.222122,259.488233 686.141275,265.170775 674.590080,275.719149 676.316310,278.591861 661.176901,282.259728 658.394022,258.779462 660.281807,257.162837 658.383609,254.973672 662.910430,251.093674 657.855101,245.252368 663.251661,240.628756 668.523114,246.719600 673.356520,242.569965 675.386381,244.906685 676.659495,244.273097 680.065372,248.031370 682.964348,245.430616 688.740739,240.317325 697.615456,248.473929 707.854176,237.437587 718.633839,245.597870 720.241375,243.974185 725.223803,248.870623 726.030434,249.478993 728.661343,246.771635 729.442897,247.224045 731.445949,245.255303 736.406526,250.251048 734.383586,252.241478 737.085761,255.527134 730.359438,259.961847 728.736512,258.744863 727.336677,260.185172 723.617372,256.585401 719.467867,260.841022 725.490970,266.651293"/>
    <poly id="263985344" type="leisure" color="207,245,201" fill="1" layer="-2.00" shape="189.413535,631.864750 197.774746,642.748441 288.580058,669.044115 389.369694,686.682979 396.346409,687.646485 442.456098,694.022863 442.056805,643.864226 439.168129,497.927895 438.427258,460.552989 438.208014,449.297324 395.536020,453.436792 389.205853,455.207819 372.747265,454.060951 328.025909,416.709964 316.324666,434.388839 267.388511,504.884342 189.457021,618.230346 189.413535,631.864750"/>
    <poly id="289730185" type="amenity" color="237,199,199" fill="1" layer="-1.00" shape="244.174518,376.077276 241.938080,351.601330 246.912988,334.141342 242.985045,330.758387 243.308654,326.739125 255.917097,326.413085 258.388775,328.871794 282.429334,328.467510 283.064739,326.275646 294.441728,326.850602 297.211153,337.837623 299.881453,338.936684 298.997371,343.707373 301.524615,345.879028 300.092802,349.360022 301.463542,350.992192 298.971757,354.324449 301.441805,357.615239 298.965767,359.938266 301.227952,363.035209 298.301568,366.345428 300.089037,368.709254 296.144087,372.914690 298.966749,379.099007 291.958315,376.315238 283.291269,376.418733 283.133557,374.617405 258.181931,373.955826 257.739814,376.152558 244.174518,376.077276"/>
    <poly id="289730185#1" type="building" color="255,230,230" fill="1" layer="-1.00" shape="244.174518,376.077276 241.938080,351.601330 246.912988,334.141342 242.985045,330.758387 243.308654,326.739125 255.917097,326.413085 258.388775,328.871794 282.429334,328.467510 283.064739,326.275646 294.441728,326.850602 297.211153,337.837623 299.881453,338.936684 298.997371,343.707373 301.524615,345.879028 300.092802,349.360022 301.463542,350.992192 298.971757,354.324449 301.441805,357.615239 298.965767,359.938266 301.227952,363.035209 298.301568,366.345428 300.089037,368.709254 296.144087,372.914690 298.966749,379.099007 291.958315,376.315238 283.291269,376.418733 283.133557,374.617405 258.181931,373.955826 257.739814,376.152558 244.174518,376.077276"/>
    <poly id="289737852" type="building" color="255,230,230" fill="1" layer="-1.00" shape="226.867210,318.758535 224.583292,258.522900 277.850657,259.142887 278.189772,272.942255 290.089858,274.251535 291.859139,314.204068 226.867210,318.758535"/>
    <poly id="289739851" type="building" color="255,230,230" fill="1" layer="-1.00" shape="349.880268,187.886477 349.749698,173.104915 360.186012,173.023827 360.127274,166.909113 354.488303,166.955699 354.283504,143.218765 360.657526,143.168501 360.585982,134.490565 348.524367,134.597291 348.430510,123.733119 426.196288,123.095753 426.560567,165.831031 415.292280,165.924382 415.036609,136.150578 369.654100,136.516320 369.961084,172.704199 404.123767,172.421961 404.258064,187.436616 349.880268,187.886477"/>
    <poly id="309750616" type="building" color="255,230,230" fill="1" layer="-1.00" shape="164.375625,258.172271 201.706023,258.424058 209.036606,261.859367 207.969919,268.123259 213.656098,271.960967 213.021953,278.712824 207.922488,281.147345 206.887757,311.110506 213.955593,314.994095 214.016210,322.573361 209.053734,324.944760 209.160373,331.848402 168.821426,332.419514 163.916971,327.492024 164.059168,306.859307 164.375625,258.172271"/>
    <poly id="309777132" type="tourism" color="207,245,201" fill="0" layer="-2.00" shape="130.964890,324.266182 132.844757,366.762124 128.177146,366.256333 75.028382,365.174014 42.872707,365.274705 41.622353,332.336154 44.961305,330.689376 44.763941,325.081551 32.243179,323.845673 32.222943,293.900381"/>
    <poly id="309779979" type="parking" color="184,184,179" fill="1" layer="-1.00" shape="151.959274,338.463349 152.140951,331.245218 151.488003,274.967146 162.726671,275.660523 164.059168,306.859307 163.916971,327.492024 164.215359,340.225252 151.959274,338.463349"/>
    <poly id="358869181" type="building" color="255,230,230" fill="1" layer="-1.00" shape="589.362774,185.699380 590.277107,156.332240 646.803680,155.050124 646.777904,184.839091 589.362774,185.699380"/>
    <poly id="407948416" type="building" color="255,230,230" fill="1" layer="-1.00" shape="816.589572,548.949966 815.945315,553.404937 818.373061,553.765753 817.918956,556.816475 813.978457,556.239973 808.608206,592.784061 807.375150,592.597623 806.206071,600.223575 809.490812,600.728056 809.226300,602.396705 815.043678,603.320125 815.295449,601.773198 860.592835,608.164082 867.442784,565.488601 869.739430,565.679697 871.339060,557.088265 862.814221,555.774743 862.642552,557.212742 816.589572,548.949966"/>
    <poly id="408124351" type="building" color="255,230,230" fill="1" layer="-1.00" shape="729.064091,327.041865 792.628461,381.012903 797.112103,375.778298 803.266173,380.992805 803.834086,380.330347 828.772064,351.258605 826.339034,349.189051 831.539778,343.129341 779.980221,299.346415 787.243521,290.875659 774.765493,280.275972 768.040280,288.116808 764.802556,285.361282 729.064091,327.041865"/>