<?xml version="1.0" encoding="UTF-8"?>

<!-- generated on 2024-09-23 23:31:51 by Eclipse SUMO netconvert Version 1.20.0
<configuration xmlns:xsi="http://www.w3.org/2001/XMLSchema-instance" xsi:noNamespaceSchemaLocation="http://sumo.dlr.de/xsd/netconvertConfiguration.xsd">

    <input>
        <osm-files value="map1.osm"/>
    </input>

    <output>
        <output-file value="map.net.xml"/>
    </output>

    <projection>
        <proj.utm value="true"/>
    </projection>

    <processing>
        <geometry.remove value="true"/>
        <roundabouts.guess value="true"/>
    </processing>

</configuration>
-->

<net version="1.20" junctionCornerDetail="5" limitTurnSpeed="5.50" xmlns:xsi="http://www.w3.org/2001/XMLSchema-instance" xsi:noNamespaceSchemaLocation="http://sumo.dlr.de/xsd/net_file.xsd">

    <location netOffset="460.8,362" convBoundary="0.00,0.00,898.88,816.65" origBoundary="77.891993,29.862090,77.901308,29.869391" projParameter="-"/>

    <type id="highway.footway" priority="1" numLanes="1" speed="2.78" allow="pedestrian" oneway="1" width="2.00"/>
    <type id="highway.residential" priority="3" numLanes="1" speed="13.89" disallow="tram rail_urban rail rail_electric rail_fast ship container cable_car subway aircraft wheelchair scooter drone" oneway="0"/>
    <type id="highway.service" priority="1" numLanes="1" speed="5.56" allow="pedestrian delivery bicycle" oneway="0"/>
    <type id="highway.steps" priority="1" numLanes="1" speed="1.39" allow="pedestrian" oneway="1" width="2.00"/>
    <type id="highway.tertiary" priority="10" numLanes="1" speed="22.22" disallow="tram rail_urban rail rail_electric rail_fast ship container cable_car subway aircraft wheelchair scooter drone" oneway="0"/>

    <edge id=":11329199173_0" function="internal">
        <lane id=":11329199173_0_0" index="0" allow="pedestrian delivery bicycle" speed="3.65" length="4.67" shape="736.63,187.50 735.43,186.71 735.02,185.91 735.42,185.11 736.61,184.30"/>
    </edge>
    <edge id=":11329199185_0" function="internal">
        <lane id=":11329199185_0_0" index="0" allow="pedestrian delivery bicycle" speed="5.56" length="3.58" shape="810.60,283.09 809.83,283.81 809.29,284.31 808.80,284.84 808.16,285.68"/>
    </edge>
    <edge id=":11329199185_1" function="internal">
        <lane id=":11329199185_1_0" index="0" allow="pedestrian delivery bicycle" speed="3.65" length="1.44" shape="810.60,283.09 809.19,283.36"/>
    </edge>
    <edge id=":11329199185_4" function="internal">
        <lane id=":11329199185_4_0" index="0" allow="pedestrian delivery bicycle" speed="3.65" length="3.23" shape="809.19,283.36 808.34,283.07 808.07,282.21 808.36,280.80"/>
    </edge>
    <edge id=":11329199185_2" function="internal">
        <lane id=":11329199185_2_0" index="0" allow="pedestrian delivery bicycle" speed="5.56" length="4.14" shape="805.55,283.83 806.29,282.85 806.85,282.23 807.47,281.65 808.36,280.80"/>
    </edge>
    <edge id=":11329199185_3" function="internal">
        <lane id=":11329199185_3_0" index="0" allow="pedestrian delivery bicycle" speed="3.65" length="1.44" shape="805.55,283.83 806.90,283.31"/>
    </edge>
    <edge id=":11329199185_5" function="internal">
        <lane id=":11329199185_5_0" index="0" allow="pedestrian delivery bicycle" speed="3.65" length="3.23" shape="806.90,283.31 807.79,283.45 808.20,284.24 808.16,285.68"/>
    </edge>
    <edge id=":11329199222_0" function="internal">
        <lane id=":11329199222_0_0" index="0" allow="pedestrian delivery bicycle" speed="3.65" length="4.67" shape="823.27,126.68 822.87,125.29 823.07,124.42 823.89,124.07 825.33,124.22"/>
    </edge>
    <edge id=":11329199230_0" function="internal">
        <lane id=":11329199230_0_0" index="0" disallow="tram rail_urban rail rail_electric rail_fast ship container cable_car subway aircraft wheelchair scooter drone" speed="5.56" length="7.87" shape="807.58,291.26 801.10,286.78"/>
    </edge>
    <edge id=":11329199230_1" function="internal">
        <lane id=":11329199230_1_0" index="0" allow="pedestrian delivery bicycle" speed="5.56" length="3.10" shape="807.58,291.26 805.71,289.38 805.50,288.98"/>
    </edge>
    <edge id=":11329199230_7" function="internal">
        <lane id=":11329199230_7_0" index="0" allow="pedestrian delivery bicycle" speed="5.56" length="5.35" shape="805.50,288.98 804.74,287.54 804.64,285.75 805.44,283.99"/>
    </edge>
    <edge id=":11329199230_2" function="internal">
        <lane id=":11329199230_2_0" index="0" allow="pedestrian delivery bicycle" speed="4.52" length="3.61" shape="808.04,285.85 807.86,286.42 808.07,287.10 808.65,287.89 809.61,288.79"/>
    </edge>
    <edge id=":11329199230_3" function="internal">
        <lane id=":11329199230_3_0" index="0" allow="pedestrian delivery bicycle" speed="5.56" length="8.10" shape="808.04,285.85 806.50,287.46 804.83,288.15 803.03,287.93 801.10,286.78"/>
    </edge>
    <edge id=":11329199230_4" function="internal">
        <lane id=":11329199230_4_0" index="0" allow="pedestrian delivery bicycle" speed="3.65" length="4.67" shape="808.04,285.85 806.70,286.36 805.81,286.22 805.39,285.43 805.44,283.99"/>
    </edge>
    <edge id=":11329199230_5" function="internal">
        <lane id=":11329199230_5_0" index="0" allow="pedestrian delivery bicycle" speed="4.31" length="3.53" shape="802.35,283.67 803.33,284.33 804.17,284.60 804.88,284.49 805.44,283.99"/>
    </edge>
    <edge id=":11329199230_6" function="internal">
        <lane id=":11329199230_6_0" index="0" disallow="tram rail_urban rail rail_electric rail_fast ship container cable_car subway aircraft wheelchair scooter drone" speed="5.56" length="8.89" shape="802.35,283.67 809.61,288.79"/>
    </edge>
    <edge id=":11329199240_0" function="internal">
        <lane id=":11329199240_0_0" index="0" allow="pedestrian delivery bicycle" speed="3.65" length="4.67" shape="814.88,402.07 815.71,403.25 815.79,404.14 815.13,404.74 813.72,405.06"/>
    </edge>
    <edge id=":11329199252_0" function="internal">
        <lane id=":11329199252_0_0" index="0" allow="pedestrian delivery bicycle" speed="5.56" length="4.95" shape="796.72,544.61 791.79,544.17"/>
    </edge>
    <edge id=":11329199252_1" function="internal">
        <lane id=":11329199252_1_0" index="0" allow="pedestrian delivery bicycle" speed="3.65" length="1.44" shape="796.72,544.61 795.57,543.74"/>
    </edge>
    <edge id=":11329199252_4" function="internal">
        <lane id=":11329199252_4_0" index="0" allow="pedestrian delivery bicycle" speed="3.65" length="3.23" shape="795.57,543.74 795.21,542.92 795.65,542.14 796.90,541.41"/>
    </edge>
    <edge id=":11329199252_2" function="internal">
        <lane id=":11329199252_2_0" index="0" allow="pedestrian delivery bicycle" speed="5.56" length="4.79" shape="792.12,540.99 796.90,541.41"/>
    </edge>
    <edge id=":11329199252_3" function="internal">
        <lane id=":11329199252_3_0" index="0" allow="pedestrian delivery bicycle" speed="3.65" length="1.44" shape="792.12,540.99 793.23,541.91"/>
    </edge>
    <edge id=":11329199252_5" function="internal">
        <lane id=":11329199252_5_0" index="0" allow="pedestrian delivery bicycle" speed="3.65" length="3.23" shape="793.23,541.91 793.55,542.75 793.07,543.50 791.79,544.17"/>
    </edge>
    <edge id=":11329199260_0" function="internal">
        <lane id=":11329199260_0_0" index="0" disallow="tram rail_urban rail rail_electric rail_fast ship container cable_car subway aircraft wheelchair scooter drone" speed="13.89" length="5.16" shape="848.72,360.86 846.56,365.54"/>
    </edge>
    <edge id=":11329199260_1" function="internal">
        <lane id=":11329199260_1_0" index="0" disallow="tram rail_urban rail rail_electric rail_fast ship container cable_car subway aircraft wheelchair scooter drone" speed="13.89" length="5.16" shape="843.66,364.20 845.82,359.52"/>
    </edge>
    <edge id=":11329200869_0" function="internal">
        <lane id=":11329200869_0_0" index="0" disallow="tram rail_urban rail rail_electric rail_fast ship container cable_car subway aircraft wheelchair scooter drone" speed="5.56" length="6.00" shape="837.29,315.76 832.68,311.93"/>
    </edge>
    <edge id=":11329200869_1" function="internal">
        <lane id=":11329200869_1_0" index="0" disallow="tram rail_urban rail rail_electric rail_fast ship container cable_car subway aircraft wheelchair scooter drone" speed="5.56" length="6.03" shape="834.72,309.46 839.35,313.31"/>
    </edge>
    <edge id=":11329200881_0" function="internal">
        <lane id=":11329200881_0_0" index="0" disallow="tram rail_urban rail rail_electric rail_fast ship container cable_car subway aircraft wheelchair scooter drone" speed="13.89" length="9.57" shape="796.50,180.76 796.63,183.60 796.76,185.56 796.69,187.50 796.22,190.28"/>
    </edge>
    <edge id=":11329200881_1" function="internal">
        <lane id=":11329200881_1_0" index="0" allow="pedestrian delivery bicycle" speed="6.02" length="4.24" shape="796.50,180.76 796.36,183.55 796.01,184.95"/>
    </edge>
    <edge id=":11329200881_7" function="internal">
        <lane id=":11329200881_7_0" index="0" allow="pedestrian delivery bicycle" speed="6.02" length="3.43" shape="796.01,184.95 795.85,185.55 794.97,186.75 793.70,187.14"/>
    </edge>
    <edge id=":11329200881_2" function="internal">
        <lane id=":11329200881_2_0" index="0" allow="pedestrian delivery bicycle" speed="4.18" length="3.15" shape="793.70,183.94 793.30,180.82"/>
    </edge>
    <edge id=":11329200881_3" function="internal">
        <lane id=":11329200881_3_0" index="0" allow="pedestrian delivery bicycle" speed="5.77" length="7.97" shape="793.70,183.94 795.30,184.34 796.26,185.53 796.56,187.51 796.22,190.28"/>
    </edge>
    <edge id=":11329200881_4" function="internal">
        <lane id=":11329200881_4_0" index="0" allow="pedestrian delivery bicycle" speed="3.65" length="4.67" shape="793.70,183.94 794.90,184.74 795.30,185.54 794.90,186.34 793.70,187.14"/>
    </edge>
    <edge id=":11329200881_5" function="internal">
        <lane id=":11329200881_5_0" index="0" allow="pedestrian delivery bicycle" speed="4.11" length="3.44" shape="792.96,190.24 793.31,189.34 793.79,188.32 794.04,187.49 793.70,187.14"/>
    </edge>
    <edge id=":11329200881_6" function="internal">
        <lane id=":11329200881_6_0" index="0" disallow="tram rail_urban rail rail_electric rail_fast ship container cable_car subway aircraft wheelchair scooter drone" speed="13.89" length="9.47" shape="792.96,190.24 793.43,187.48 793.52,185.56 793.42,183.63 793.30,180.82"/>
    </edge>
    <edge id=":11330427515_0" function="internal">
        <lane id=":11330427515_0_0" index="0" allow="pedestrian delivery bicycle" speed="5.56" length="5.43" shape="665.61,244.24 665.00,245.73 664.46,246.69 663.75,247.55 662.63,248.71"/>
    </edge>
    <edge id=":11330427515_1" function="internal">
        <lane id=":11330427515_1_0" index="0" allow="pedestrian delivery bicycle" speed="3.65" length="4.67" shape="665.61,244.24 664.43,245.08 663.54,245.16 662.94,244.50 662.62,243.10"/>
    </edge>
    <edge id=":11330427515_2" function="internal">
        <lane id=":11330427515_2_0" index="0" allow="pedestrian delivery bicycle" speed="5.56" length="4.13" shape="660.34,246.48 661.19,245.60 661.74,244.95 662.15,244.22 662.62,243.10"/>
    </edge>
    <edge id=":11330427515_3" function="internal">
        <lane id=":11330427515_3_0" index="0" allow="pedestrian delivery bicycle" speed="3.65" length="4.67" shape="660.34,246.48 661.75,246.17 662.60,246.45 662.89,247.29 662.63,248.71"/>
    </edge>
    <edge id=":11330427519_0" function="internal">
        <lane id=":11330427519_0_0" index="0" allow="pedestrian delivery bicycle" speed="5.56" length="5.23" shape="654.06,254.43 653.82,253.12 653.27,252.00 652.41,251.07 651.25,250.33"/>
    </edge>
    <edge id=":11330427519_1" function="internal">
        <lane id=":11330427519_1_0" index="0" allow="pedestrian delivery bicycle" speed="5.56" length="9.82" shape="654.06,254.43 654.29,252.18 655.28,250.19 657.02,248.48 659.52,247.03"/>
    </edge>
    <edge id=":11330427519_2" function="internal">
        <lane id=":11330427519_2_0" index="0" allow="pedestrian delivery bicycle" speed="3.65" length="4.67" shape="654.06,254.43 654.78,253.19 655.56,252.74 656.38,253.09 657.25,254.24"/>
    </edge>
    <edge id=":11330427519_3" function="internal">
        <lane id=":11330427519_3_0" index="0" allow="pedestrian delivery bicycle" speed="5.56" length="5.03" shape="659.92,250.36 658.69,251.09 657.84,251.98 657.36,253.03 657.25,254.24"/>
    </edge>
    <edge id=":11330427519_4" function="internal">
        <lane id=":11330427519_4_0" index="0" allow="pedestrian delivery bicycle" speed="5.56" length="8.97" shape="659.92,250.36 657.71,251.12 655.53,251.37 653.38,251.11 651.25,250.33"/>
    </edge>
    <edge id=":11330427519_5" function="internal">
        <lane id=":11330427519_5_0" index="0" allow="pedestrian delivery bicycle" speed="3.71" length="4.91" shape="659.92,250.36 658.57,249.68 658.05,248.90 658.37,248.01 659.52,247.03"/>
    </edge>
    <edge id=":11330427519_6" function="internal">
        <lane id=":11330427519_6_0" index="0" allow="pedestrian delivery bicycle" speed="5.56" length="7.94" shape="651.84,247.06 653.70,247.73 655.60,247.95 657.54,247.71 659.52,247.03"/>
    </edge>
    <edge id=":11330427519_7" function="internal">
        <lane id=":11330427519_7_0" index="0" allow="pedestrian delivery bicycle" speed="5.56" length="9.44" shape="651.84,247.06 654.10,248.44 655.75,250.10 656.80,252.03 657.25,254.24"/>
    </edge>
    <edge id=":11330427519_8" function="internal">
        <lane id=":11330427519_8_0" index="0" allow="pedestrian delivery bicycle" speed="3.70" length="4.86" shape="651.84,247.06 652.91,248.10 653.18,248.99 652.62,249.73 651.25,250.33"/>
    </edge>
    <edge id=":11330427520_0" function="internal">
        <lane id=":11330427520_0_0" index="0" allow="pedestrian delivery bicycle" speed="5.56" length="7.84" shape="658.42,233.82 656.34,233.04 654.77,233.05 653.15,233.58 650.96,234.39"/>
    </edge>
    <edge id=":11330427520_1" function="internal">
        <lane id=":11330427520_1_0" index="0" allow="pedestrian delivery bicycle" speed="5.56" length="9.21" shape="658.42,233.82 655.86,232.32 654.00,230.75 652.85,229.10 652.40,227.36"/>
    </edge>
    <edge id=":11330427520_2" function="internal">
        <lane id=":11330427520_2_0" index="0" allow="pedestrian delivery bicycle" speed="3.75" length="5.06" shape="658.42,233.82 657.19,232.87 656.81,231.97 657.30,231.14 658.66,230.36"/>
    </edge>
    <edge id=":11330427520_3" function="internal">
        <lane id=":11330427520_3_0" index="0" allow="pedestrian delivery bicycle" speed="5.56" length="4.54" shape="655.60,227.24 655.83,228.05 656.41,228.84 657.35,229.61 658.66,230.36"/>
    </edge>
    <edge id=":11330427520_4" function="internal">
        <lane id=":11330427520_4_0" index="0" allow="pedestrian delivery bicycle" speed="5.56" length="9.26" shape="655.60,227.24 655.42,229.77 654.59,231.81 653.10,233.35 650.96,234.39"/>
    </edge>
    <edge id=":11330427520_5" function="internal">
        <lane id=":11330427520_5_0" index="0" allow="pedestrian delivery bicycle" speed="3.65" length="4.67" shape="655.60,227.24 654.85,228.47 654.06,228.90 653.25,228.53 652.40,227.36"/>
    </edge>
    <edge id=":11330427520_6" function="internal">
        <lane id=":11330427520_6_0" index="0" allow="pedestrian delivery bicycle" speed="5.56" length="5.07" shape="649.97,231.35 651.10,230.79 651.88,229.93 652.31,228.79 652.40,227.36"/>
    </edge>
    <edge id=":11330427520_7" function="internal">
        <lane id=":11330427520_7_0" index="0" allow="pedestrian delivery bicycle" speed="5.56" length="9.17" shape="649.97,231.35 652.53,230.35 654.41,229.62 656.24,229.50 658.66,230.36"/>
    </edge>
    <edge id=":11330427520_8" function="internal">
        <lane id=":11330427520_8_0" index="0" allow="pedestrian delivery bicycle" speed="3.65" length="4.67" shape="649.97,231.35 651.36,231.74 651.99,232.38 651.85,233.26 650.96,234.39"/>
    </edge>
    <edge id=":11330427525_0" function="internal">
        <lane id=":11330427525_0_0" index="0" allow="pedestrian delivery bicycle" speed="4.46" length="3.53" shape="652.40,227.26 652.49,226.32 652.66,225.23 652.66,224.33 652.22,223.95"/>
    </edge>
    <edge id=":11330427525_1" function="internal">
        <lane id=":11330427525_1_0" index="0" allow="pedestrian delivery bicycle" speed="5.56" length="10.39" shape="652.40,227.26 652.66,224.41 653.79,222.38 655.77,221.17 658.63,220.76"/>
    </edge>
    <edge id=":11330427525_2" function="internal">
        <lane id=":11330427525_2_0" index="0" allow="pedestrian delivery bicycle" speed="3.65" length="4.67" shape="652.40,227.26 653.16,226.03 653.94,225.60 654.75,225.97 655.60,227.14"/>
    </edge>
    <edge id=":11330427525_3" function="internal">
        <lane id=":11330427525_3_0" index="0" allow="pedestrian delivery bicycle" speed="4.98" length="5.07" shape="658.62,223.96 657.24,224.16 656.27,224.76 655.72,225.75 655.60,227.14"/>
    </edge>
    <edge id=":11330427525_4" function="internal">
        <lane id=":11330427525_4_0" index="0" disallow="tram rail_urban rail rail_electric rail_fast ship container cable_car subway aircraft wheelchair scooter drone" speed="5.56" length="6.40" shape="658.62,223.96 652.22,223.95"/>
    </edge>
    <edge id=":11330427525_5" function="internal">
        <lane id=":11330427525_5_0" index="0" disallow="tram rail_urban rail rail_electric rail_fast ship container cable_car subway aircraft wheelchair scooter drone" speed="5.56" length="6.40" shape="652.22,220.75 658.63,220.76"/>
    </edge>
    <edge id=":11330427525_6" function="internal">
        <lane id=":11330427525_6_0" index="0" allow="pedestrian delivery bicycle" speed="5.56" length="1.68" shape="652.22,220.75 653.57,221.15 653.75,221.36"/>
    </edge>
    <edge id=":11330427525_7" function="internal">
        <lane id=":11330427525_7_0" index="0" allow="pedestrian delivery bicycle" speed="5.56" length="6.22" shape="653.75,221.36 654.59,222.35 655.26,224.35 655.60,227.14"/>
    </edge>
    <edge id=":11330459337_0" function="internal">
        <lane id=":11330459337_0_0" index="0" disallow="tram rail_urban rail rail_electric rail_fast ship container cable_car subway aircraft wheelchair scooter drone" speed="5.56" length="0.61" shape="760.53,254.27 760.02,253.94"/>
    </edge>
    <edge id=":11330459337_1" function="internal">
        <lane id=":11330459337_1_0" index="0" disallow="tram rail_urban rail rail_electric rail_fast ship container cable_car subway aircraft wheelchair scooter drone" speed="5.56" length="0.64" shape="761.81,251.29 762.35,251.63"/>
    </edge>
    <edge id=":11330459341_0" function="internal">
        <lane id=":11330459341_0_0" index="0" allow="pedestrian delivery bicycle" speed="5.56" length="1.49" shape="793.50,187.14 792.01,187.16"/>
    </edge>
    <edge id=":11330459341_1" function="internal">
        <lane id=":11330459341_1_0" index="0" allow="pedestrian delivery bicycle" speed="3.65" length="4.67" shape="793.50,187.14 792.30,186.34 791.90,185.55 792.30,184.74 793.50,183.94"/>
    </edge>
    <edge id=":11330459341_2" function="internal">
        <lane id=":11330459341_2_0" index="0" allow="pedestrian delivery bicycle" speed="5.56" length="1.51" shape="791.99,183.96 793.50,183.94"/>
    </edge>
    <edge id=":11330459341_3" function="internal">
        <lane id=":11330459341_3_0" index="0" allow="pedestrian delivery bicycle" speed="3.65" length="4.67" shape="791.99,183.96 793.20,184.75 793.60,185.55 793.21,186.35 792.01,187.16"/>
    </edge>
    <edge id=":11330679685_0" function="internal">
        <lane id=":11330679685_0_0" index="0" allow="pedestrian delivery bicycle" speed="3.65" length="4.67" shape="649.33,151.05 650.14,149.86 650.94,149.47 651.74,149.87 652.53,151.08"/>
    </edge>
    <edge id=":11330679686_0" function="internal">
        <lane id=":11330679686_0_0" index="0" disallow="tram rail_urban rail rail_electric rail_fast ship container cable_car subway aircraft wheelchair scooter drone" speed="5.56" length="6.39" shape="652.02,223.95 645.62,223.94"/>
    </edge>
    <edge id=":11330679686_1" function="internal">
        <lane id=":11330679686_1_0" index="0" allow="pedestrian delivery bicycle" speed="5.56" length="1.77" shape="652.02,223.95 650.56,223.55 650.39,223.35"/>
    </edge>
    <edge id=":11330679686_7" function="internal">
        <lane id=":11330679686_7_0" index="0" allow="pedestrian delivery bicycle" speed="5.56" length="6.15" shape="650.39,223.35 649.53,222.36 648.93,220.38 648.74,217.61"/>
    </edge>
    <edge id=":11330679686_2" function="internal">
        <lane id=":11330679686_2_0" index="0" allow="pedestrian delivery bicycle" speed="4.29" length="3.35" shape="651.94,217.64 651.81,218.55 651.61,219.57 651.59,220.41 652.02,220.75"/>
    </edge>
    <edge id=":11330679686_3" function="internal">
        <lane id=":11330679686_3_0" index="0" allow="pedestrian delivery bicycle" speed="5.56" length="10.16" shape="651.94,217.64 651.53,220.40 650.34,222.37 648.37,223.55 645.62,223.94"/>
    </edge>
    <edge id=":11330679686_4" function="internal">
        <lane id=":11330679686_4_0" index="0" allow="pedestrian delivery bicycle" speed="3.65" length="4.67" shape="651.94,217.64 651.13,218.83 650.33,219.23 649.53,218.82 648.74,217.61"/>
    </edge>
    <edge id=":11330679686_5" function="internal">
        <lane id=":11330679686_5_0" index="0" allow="pedestrian delivery bicycle" speed="5.06" length="5.03" shape="645.63,220.74 646.98,220.55 647.95,219.96 648.54,218.98 648.74,217.61"/>
    </edge>
    <edge id=":11330679686_6" function="internal">
        <lane id=":11330679686_6_0" index="0" disallow="tram rail_urban rail rail_electric rail_fast ship container cable_car subway aircraft wheelchair scooter drone" speed="5.56" length="6.39" shape="645.63,220.74 652.02,220.75"/>
    </edge>
    <edge id=":11330679689_0" function="internal">
        <lane id=":11330679689_0_0" index="0" allow="pedestrian delivery bicycle" speed="5.56" length="7.66" shape="636.82,229.13 635.37,226.85 634.01,225.22 632.73,224.25 631.54,223.92"/>
    </edge>
    <edge id=":11330679689_1" function="internal">
        <lane id=":11330679689_1_0" index="0" allow="pedestrian delivery bicycle" speed="5.56" length="13.31" shape="636.82,229.13 635.33,225.45 635.66,222.83 637.83,221.26 641.82,220.74"/>
    </edge>
    <edge id=":11330679689_2" function="internal">
        <lane id=":11330679689_2_0" index="0" allow="pedestrian delivery bicycle" speed="3.65" length="4.67" shape="636.82,229.13 636.95,227.69 637.46,226.96 638.36,226.93 639.63,227.61"/>
    </edge>
    <edge id=":11330679689_3" function="internal">
        <lane id=":11330679689_3_0" index="0" allow="pedestrian delivery bicycle" speed="4.68" length="5.82" shape="641.82,223.94 640.07,224.16 639.13,224.85 638.98,226.00 639.63,227.61"/>
    </edge>
    <edge id=":11330679689_4" function="internal">
        <lane id=":11330679689_4_0" index="0" disallow="tram rail_urban rail rail_electric rail_fast ship container cable_car subway aircraft wheelchair scooter drone" speed="5.56" length="10.28" shape="641.82,223.94 631.54,223.92"/>
    </edge>
    <edge id=":11330679689_5" function="internal">
        <lane id=":11330679689_5_0" index="0" disallow="tram rail_urban rail rail_electric rail_fast ship container cable_car subway aircraft wheelchair scooter drone" speed="5.56" length="10.28" shape="631.54,220.72 641.82,220.74"/>
    </edge>
    <edge id=":11330679689_6" function="internal">
        <lane id=":11330679689_6_0" index="0" allow="pedestrian delivery bicycle" speed="5.56" length="2.55" shape="631.54,220.72 633.61,221.15 633.98,221.39"/>
    </edge>
    <edge id=":11330679689_7" function="internal">
        <lane id=":11330679689_7_0" index="0" allow="pedestrian delivery bicycle" speed="5.56" length="8.52" shape="633.98,221.39 635.64,222.45 637.65,224.60 639.63,227.61"/>
    </edge>
    <edge id=":11330679693_0" function="internal">
        <lane id=":11330679693_0_0" index="0" allow="pedestrian delivery bicycle" speed="3.65" length="4.67" shape="650.49,234.55 649.10,234.15 648.47,233.52 648.61,232.63 649.50,231.50"/>
    </edge>
    <edge id=":11331527319_0" function="internal">
        <lane id=":11331527319_0_0" index="0" allow="pedestrian delivery bicycle" speed="3.65" length="4.67" shape="783.23,393.22 782.40,392.04 782.32,391.15 782.98,390.55 784.39,390.23"/>
    </edge>
    <edge id=":11331527326_0" function="internal">
        <lane id=":11331527326_0_0" index="0" disallow="tram rail_urban rail rail_electric rail_fast ship container cable_car subway aircraft wheelchair scooter drone" speed="8.33" length="15.00" shape="808.59,457.12 807.37,460.66 806.25,464.24 805.22,467.85 804.24,471.47"/>
    </edge>
    <edge id=":11331527326_1" function="internal">
        <lane id=":11331527326_1_0" index="0" disallow="tram rail_urban rail rail_electric rail_fast ship container cable_car subway aircraft wheelchair scooter drone" speed="11.11" length="15.58" shape="808.59,457.12 806.99,459.96 804.41,462.35 800.87,464.31 796.36,465.82"/>
    </edge>
    <edge id=":11331527326_2" function="internal">
        <lane id=":11331527326_2_0" index="0" disallow="tram rail_urban rail rail_electric rail_fast ship container cable_car subway aircraft wheelchair scooter drone" speed="3.65" length="4.67" shape="808.59,457.12 807.43,457.97 806.54,458.07 805.93,457.42 805.59,456.02"/>
    </edge>
    <edge id=":11331527326_3" function="internal">
        <lane id=":11331527326_3_0" index="0" disallow="tram rail_urban rail rail_electric rail_fast ship container cable_car subway aircraft wheelchair scooter drone" speed="10.11" length="12.50" shape="795.56,462.72 799.32,461.49 802.25,459.96 804.34,458.14 805.59,456.02"/>
    </edge>
    <edge id=":11331527326_4" function="internal">
        <lane id=":11331527326_4_0" index="0" disallow="tram rail_urban rail rail_electric rail_fast ship container cable_car subway aircraft wheelchair scooter drone" speed="7.41" length="16.73" shape="795.56,462.72 800.54,462.12 803.64,463.38 804.88,466.49 804.24,471.47"/>
    </edge>
    <edge id=":11331527326_5" function="internal">
        <lane id=":11331527326_5_0" index="0" disallow="tram rail_urban rail rail_electric rail_fast ship container cable_car subway aircraft wheelchair scooter drone" speed="3.65" length="4.67" shape="795.56,462.72 796.92,463.20 797.51,463.87 797.32,464.75 796.36,465.82"/>
    </edge>
    <edge id=":11331527326_6" function="internal">
        <lane id=":11331527326_6_0" index="0" disallow="tram rail_urban rail rail_electric rail_fast ship container cable_car subway aircraft wheelchair scooter drone" speed="5.68" length="9.23" shape="801.15,470.65 801.50,467.90 800.82,466.18 799.10,465.49 796.36,465.82"/>
    </edge>
    <edge id=":11331527326_7" function="internal">
        <lane id=":11331527326_7_0" index="0" disallow="tram rail_urban rail rail_electric rail_fast ship container cable_car subway aircraft wheelchair scooter drone" speed="8.33" length="15.29" shape="801.15,470.65 802.14,466.98 803.21,463.28 804.35,459.60 805.59,456.02"/>
    </edge>
    <edge id=":11331527326_8" function="internal">
        <lane id=":11331527326_8_0" index="0" disallow="tram rail_urban rail rail_electric rail_fast ship container cable_car subway aircraft wheelchair scooter drone" speed="3.65" length="4.67" shape="801.15,470.65 802.23,469.69 803.11,469.51 803.78,470.10 804.24,471.47"/>
    </edge>
    <edge id=":11331527345_0" function="internal">
        <lane id=":11331527345_0_0" index="0" allow="pedestrian delivery bicycle" speed="3.65" length="4.67" shape="665.72,282.08 667.08,282.56 667.66,283.24 667.47,284.12 666.50,285.18"/>
    </edge>
    <edge id=":11333377384_0" function="internal">
        <lane id=":11333377384_0_0" index="0" disallow="tram rail_urban rail rail_electric rail_fast ship container cable_car subway aircraft wheelchair scooter drone" speed="13.89" length="5.02" shape="257.09,495.80 254.23,499.92"/>
    </edge>
    <edge id=":11333377384_1" function="internal">
        <lane id=":11333377384_1_0" index="0" disallow="tram rail_urban rail rail_electric rail_fast ship container cable_car subway aircraft wheelchair scooter drone" speed="13.89" length="5.05" shape="251.59,498.10 254.47,493.95"/>
    </edge>
    <edge id=":11333377391_0" function="internal">
        <lane id=":11333377391_0_0" index="0" allow="pedestrian delivery bicycle" speed="3.65" length="4.67" shape="289.56,267.24 288.26,266.61 287.76,265.87 288.04,265.02 289.12,264.07"/>
    </edge>
    <edge id=":11333377408_0" function="internal">
        <lane id=":11333377408_0_0" index="0" allow="pedestrian delivery bicycle" speed="5.56" length="5.85" shape="325.86,282.70 324.67,283.22 323.82,284.17 323.30,285.55 323.12,287.36"/>
    </edge>
    <edge id=":11333377408_1" function="internal">
        <lane id=":11333377408_1_0" index="0" allow="pedestrian delivery bicycle" speed="5.56" length="9.43" shape="325.86,282.70 316.59,284.48"/>
    </edge>
    <edge id=":11333377408_2" function="internal">
        <lane id=":11333377408_2_0" index="0" allow="pedestrian delivery bicycle" speed="3.65" length="4.67" shape="325.86,282.70 324.51,282.19 323.94,281.49 324.16,280.63 325.15,279.58"/>
    </edge>
    <edge id=":11333377408_3" function="internal">
        <lane id=":11333377408_3_0" index="0" allow="pedestrian delivery bicycle" speed="5.56" length="9.25" shape="316.06,281.33 325.15,279.58"/>
    </edge>