<?xml version="1.0" encoding="UTF-8"?>

<!-- generated on 2024-09-23 23:13:27 by Eclipse SUMO netconvert Version 1.20.0
<configuration xmlns:xsi="http://www.w3.org/2001/XMLSchema-instance" xsi:noNamespaceSchemaLocation="http://sumo.dlr.de/xsd/netconvertConfiguration.xsd">

    <input>
        <osm-files value="map1.osm"/>
    </input>

    <output>
        <output-file value="map.net.xml"/>
        <plain-output-prefix value="map"/>
    </output>

    <projection>
        <proj.utm value="true"/>
    </projection>

    <processing>
        <geometry.remove value="true"/>
        <roundabouts.guess value="true"/>
    </processing>

</configuration>
-->

<nodes version="1.20" xmlns:xsi="http://www.w3.org/2001/XMLSchema-instance" xsi:noNamespaceSchemaLocation="http://sumo.dlr.de/xsd/nodes_file.xsd">
    <location netOffset="-779358.76,-3307028.12" convBoundary="0.00,0.00,898.88,816.65" origBoundary="77.891993,29.862090,77.901308,29.869391" projParameter="+proj=utm +zone=43 +ellps=WGS84 +datum=WGS84 +units=m +no_defs"/>

    <node id="11329199172" x="843.25" y="344.52" type="dead_end"/>
    <node id="11329199173" x="736.62" y="185.90" type="priority"/>
    <node id="11329199180" x="838.33" y="308.50" type="dead_end"/>
    <node id="11329199185" x="807.41" y="283.98" type="priority"/>
    <node id="11329199196" x="782.28" y="523.51" type="dead_end"/>
    <node id="11329199204" x="781.20" y="474.82" type="dead_end"/>
    <node id="11329199205" x="773.49" y="255.98" type="dead_end"/>
    <node id="11329199222" x="824.30" y="125.45" type="priority"/>
    <node id="11329199225" x="794.67" y="528.32" type="dead_end"/>
    <node id="11329199230" x="805.13" y="287.17" type="priority"/>
    <node id="11329199233" x="848.97" y="315.42" type="dead_end"/>
    <node id="11329199240" x="816.78" y="404.53" type="priority"/>
    <node id="11329199244" x="836.98" y="358.17" type="dead_end"/>
    <node id="11329199250" x="804.27" y="505.71" type="dead_end"/>
    <node id="11329199252" x="793.56" y="542.75" type="priority"/>
    <node id="11329199256" x="828.13" y="615.31" type="dead_end"/>
    <node id="11329199260" x="846.22" y="362.47" type="priority"/>
    <node id="11329199263" x="802.17" y="455.81" type="dead_end"/>
    <node id="11329199264" x="832.19" y="318.35" type="dead_end"/>
    <node id="11329200869" x="836.23" y="312.78" type="priority"/>
    <node id="11329200878" x="848.62" y="363.72" type="dead_end"/>
    <node id="11329200881" x="794.98" y="185.54" type="priority"/>
    <node id="11330427513" x="706.24" y="268.27" type="dead_end"/>
    <node id="11330427515" x="663.34" y="245.69" type="right_before_left"/>
    <node id="11330427517" x="706.69" y="271.84" type="dead_end"/>
    <node id="11330427519" x="655.37" y="249.78" type="right_before_left"/>
    <node id="11330427520" x="654.23" y="231.65" type="right_before_left"/>
    <node id="11330427524" x="702.75" y="268.52" type="dead_end"/>
    <node id="11330427525" x="653.75" y="222.36" type="priority"/>
    <node id="11330427532" x="715.74" y="259.45" type="dead_end"/>
    <node id="11330427533" x="693.99" y="259.73" type="dead_end"/>
    <node id="11330427534" x="717.04" y="282.71" type="dead_end"/>
    <node id="11330427535" x="695.13" y="279.27" type="dead_end"/>
    <node id="11330427536" x="702.86" y="272.16" type="dead_end"/>
    <node id="11330459337" x="762.75" y="253.85" type="priority"/>
    <node id="11330459341" x="794.55" y="185.54" type="right_before_left"/>
    <node id="11330471739" x="761.89" y="260.49" type="dead_end"/>
    <node id="11330471740" x="752.77" y="271.90" type="dead_end"/>
    <node id="11330483046" x="764.79" y="250.25" type="dead_end"/>
    <node id="11330483050" x="585.56" y="215.80" type="dead_end"/>
    <node id="11330679685" x="650.93" y="151.07" type="priority"/>
    <node id="11330679686" x="650.30" y="222.35" type="priority"/>
    <node id="11330679689" x="634.95" y="222.33" type="priority"/>
    <node id="11330679693" x="650.00" y="233.02" type="priority"/>
    <node id="11331527296" x="424.38" y="683.98" type="dead_end"/>
    <node id="11331527307" x="517.39" y="712.58" type="dead_end"/>
    <node id="11331527319" x="783.81" y="391.73" type="priority"/>
    <node id="11331527326" x="805.13" y="461.90" type="priority"/>
    <node id="11331527345" x="667.55" y="283.27" type="priority"/>
    <node id="11331527363" x="677.93" y="274.31" type="dead_end"/>
    <node id="11331527419" x="679.18" y="280.66" type="dead_end"/>
    <node id="11333377378" x="258.69" y="500.08" type="dead_end"/>
    <node id="11333377384" x="254.41" y="496.82" type="priority"/>
    <node id="11333377388" x="247.47" y="492.51" type="dead_end"/>
    <node id="11333377391" x="289.34" y="265.65" type="priority"/>
    <node id="11333377408" x="321.57" y="282.03" type="right_before_left"/>
    <node id="11333377410" x="333.45" y="273.47" type="priority"/>
    <node id="11333377411" x="332.51" y="256.72" type="priority"/>
    <node id="11333377416" x="332.69" y="259.70" type="priority"/>
    <node id="11333377424" x="321.36" y="306.08" type="right_before_left"/>
    <node id="11333377431" x="333.77" y="279.28" type="priority"/>
    <node id="11333377432" x="326.46" y="257.04" type="dead_end"/>
    <node id="11333377439" x="339.09" y="256.42" type="dead_end"/>
    <node id="11333377444" x="303.40" y="274.79" type="priority"/>
    <node id="11335853714" x="496.24" y="225.31" type="dead_end"/>
    <node id="11335853716" x="312.82" y="410.43" type="priority"/>
    <node id="11335853718" x="496.21" y="221.86" type="priority"/>
    <node id="11335853719" x="289.62" y="409.32" type="priority"/>
    <node id="11335853721" x="324.00" y="461.85" type="priority"/>
    <node id="11335853723" x="307.44" y="418.44" type="priority"/>
    <node id="11335853724" x="496.15" y="213.57" type="dead_end"/>
    <node id="11335853729" x="296.68" y="434.46" type="priority"/>
    <node id="11335853730" x="305.27" y="439.64" type="dead_end"/>
    <node id="11335853732" x="591.48" y="327.37" type="priority"/>
    <node id="11335853733" x="292.32" y="431.94" type="dead_end"/>
    <node id="11335853734" x="568.58" y="222.21" type="priority"/>
    <node id="11335903024" x="186.06" y="602.64" type="priority"/>
    <node id="11335912063" x="448.05" y="518.12" type="priority"/>
    <node id="11335912065" x="457.14" y="517.73" type="right_before_left"/>
    <node id="11335912068" x="510.68" y="538.39" type="priority"/>
    <node id="11335957815" x="446.15" y="695.10" type="dead_end"/>
    <node id="11335957816" x="452.93" y="695.07" type="dead_end"/>
    <node id="11335957817" x="451.67" y="518.37" type="dead_end"/>
    <node id="11335957818" x="444.88" y="518.39" type="dead_end"/>
    <node id="11335976533" x="541.73" y="523.21" type="priority"/>
    <node id="11335976540" x="509.54" y="522.50" type="right_before_left"/>
    <node id="11335985069" x="465.22" y="518.52" type="priority"/>
    <node id="11336000477" x="448.61" y="510.09" type="dead_end"/>
    <node id="11336000481" x="450.48" y="460.33" type="dead_end"/>
    <node id="11336037223" x="583.10" y="429.64" type="right_before_left"/>
    <node id="11336037224" x="783.93" y="472.20" type="dead_end"/>
    <node id="11336037225" x="585.94" y="420.75" type="dead_end"/>
    <node id="11336037226" x="783.63" y="467.47" type="priority"/>
    <node id="11336057778" x="508.35" y="399.14" type="right_before_left"/>
    <node id="11336057780" x="557.38" y="364.02" type="priority"/>
    <node id="11336077262" x="762.99" y="443.28" type="priority"/>
    <node id="11336077265" x="577.12" y="422.25" type="priority"/>
    <node id="11337865487" x="667.13" y="249.77" type="dead_end"/>
    <node id="11337865518" x="668.21" y="240.51" type="dead_end"/>
    <node id="11337865525" x="701.96" y="275.57" type="dead_end"/>
    <node id="11337865532" x="700.52" y="274.29" type="dead_end"/>
    <node id="11337865551" x="702.90" y="274.67" type="dead_end"/>
    <node id="2696640089" x="319.88" y="399.93" type="priority"/>
    <node id="2696640091" x="330.30" y="383.97" type="priority"/>
    <node id="2696640099" x="343.34" y="9.58" type="priority"/>
    <node id="2696640111" x="475.26" y="0.00" type="priority"/>
    <node id="2696640112" x="480.73" y="221.78" type="priority"/>
    <node id="2696640120" x="850.00" y="354.26" type="priority"/>
    <node id="2696640123" x="823.89" y="410.87" type="priority"/>
    <node id="2696640125" x="788.29" y="542.20" type="priority"/>
    <node id="2696640159" x="450.95" y="708.21" type="priority"/>
    <node id="2696640170" x="448.10" y="518.05" type="priority"/>
    <node id="2696640231" x="220.98" y="38.50" type="priority"/>
    <node id="2696640233" x="188.04" y="221.50" type="priority"/>
    <node id="2696640241" x="478.07" y="105.18" type="priority"/>
    <node id="2696640252" x="763.72" y="254.52" type="priority"/>
    <node id="2696640253" x="579.72" y="222.25" type="priority"/>
    <node id="2696640254" x="575.90" y="36.83" type="priority"/>
    <node id="2932867527" x="579.02" y="103.34" type="priority"/>
    <node id="3150625362" x="63.78" y="227.80" type="priority"/>
    <node id="3150625372" x="305.94" y="217.70" type="priority"/>
    <node id="3150629367" x="845.51" y="320.58" type="priority"/>
    <node id="3150629379" x="365.97" y="216.24" type="priority"/>
    <node id="3150655661" x="331.91" y="245.67" type="priority"/>
    <node id="3150655662" x="332.36" y="193.77" type="priority"/>
    <node id="3150667036" x="328.36" y="225.60" type="priority"/>
    <node id="3150667037" x="341.13" y="213.15" type="priority"/>
    <node id="3150667040" x="325.25" y="221.19" type="priority"/>
    <node id="3150667042" x="342.26" y="221.73" type="priority"/>
    <node id="3150667044" x="336.05" y="209.74" type="priority"/>
    <node id="3150667046" x="337.04" y="226.86" type="priority"/>
    <node id="3150667047" x="325.47" y="215.10" type="priority"/>
    <node id="3150779078" x="582.76" y="423.49" type="priority"/>
    <node id="3150779090" x="449.35" y="386.06" type="priority"/>
    <node id="3150779095" x="780.25" y="468.35" type="priority"/>
    <node id="3150779096" x="379.35" y="384.81" type="priority"/>
    <node id="3150779097" x="759.16" y="463.54" type="priority"/>
    <node id="3150780484" x="798.36" y="487.32" type="priority"/>
    <node id="3150782045" x="850.45" y="328.15" type="priority"/>
    <node id="3150782048" x="860.96" y="336.12" type="priority"/>
    <node id="3150782050" x="853.09" y="335.96" type="priority"/>
    <node id="3150782055" x="853.40" y="324.35" type="priority"/>
    <node id="3151222095" x="6.92" y="371.46" type="priority"/>
    <node id="3151260025" x="407.22" y="357.79" type="priority"/>
    <node id="3151260037" x="450.61" y="344.95" type="priority"/>
    <node id="3151260042" x="449.59" y="446.61" type="priority"/>
    <node id="3151265069" x="480.08" y="348.28" type="right_before_left"/>
    <node id="3151265073" x="506.32" y="398.41" type="right_before_left"/>
    <node id="3151265680" x="378.60" y="341.05" type="right_before_left"/>
    <node id="3151265684" x="335.12" y="305.34" type="priority"/>
    <node id="3151276099" x="378.41" y="218.36" type="priority"/>
    <node id="3151296082" x="518.26" y="438.79" type="right_before_left"/>
    <node id="3151297655" x="513.42" y="400.96" type="priority"/>
    <node id="3151340939" x="295.50" y="218.00" type="priority"/>
    <node id="3151341415" x="239.07" y="221.98" type="priority"/>
    <node id="3151341417" x="187.41" y="187.82" type="right_before_left"/>
    <node id="3151341422" x="243.15" y="188.46" type="right_before_left"/>
    <node id="3928432971" x="274.85" y="512.86" type="dead_end"/>
    <node id="5496019088" x="740.66" y="816.65" type="priority"/>
    <node id="5601335996" x="328.23" y="211.41" type="priority"/>
    <node id="9767801405" x="148.06" y="471.87" type="priority"/>
    <node id="9767801406" x="0.00" y="480.53" type="priority"/>
    <node id="9767801408" x="262.41" y="485.45" type="priority"/>
    <node id="9767801410" x="144.28" y="375.25" type="priority"/>
    <node id="9767801414" x="146.07" y="221.47" type="priority"/>
    <node id="9907507282" x="516.18" y="333.75" type="right_before_left"/>
    <node id="9907507283" x="520.70" y="221.98" type="priority"/>
    <node id="9907507288" x="659.72" y="518.53" type="right_before_left"/>
    <node id="9907507290" x="684.31" y="525.62" type="right_before_left"/>
    <node id="9907507291" x="597.03" y="533.43" type="priority"/>
    <node id="9907507293" x="624.84" y="530.95" type="right_before_left"/>
    <node id="9907507294" x="624.06" y="520.86" type="right_before_left"/>
    <node id="9907507295" x="660.47" y="527.76" type="right_before_left"/>
    <node id="9907507623" x="898.88" y="553.28" type="priority"/>
    <node id="9907507624" x="220.57" y="221.55" type="priority"/>
    <node id="9907507625" x="222.21" y="258.58" type="right_before_left"/>
    <node id="9907507627" x="146.04" y="258.23" type="priority"/>
    <node id="9907507631" x="145.99" y="345.42" type="priority"/>
    <node id="9907507632" x="144.95" y="425.11" type="priority"/>
</nodes>
