<?xml version="1.0" encoding="UTF-8"?>

<!-- generated on 2024-09-23 23:13:27 by Eclipse SUMO netconvert Version 1.20.0
<configuration xmlns:xsi="http://www.w3.org/2001/XMLSchema-instance" xsi:noNamespaceSchemaLocation="http://sumo.dlr.de/xsd/netconvertConfiguration.xsd">

    <input>
        <osm-files value="map1.osm"/>
    </input>

    <output>
        <output-file value="map.net.xml"/>
        <plain-output-prefix value="map"/>
    </output>

    <projection>
        <proj.utm value="true"/>
    </projection>

    <processing>
        <geometry.remove value="true"/>
        <roundabouts.guess value="true"/>
    </processing>

</configuration>
-->

<edges version="1.20" xmlns:xsi="http://www.w3.org/2001/XMLSchema-instance" xsi:noNamespaceSchemaLocation="http://sumo.dlr.de/xsd/edges_file.xsd">
    <location netOffset="-779358.76,-3307028.12" convBoundary="0.00,0.00,898.88,816.65" origBoundary="77.891993,29.862090,77.901308,29.869391" projParameter="+proj=utm +zone=43 +ellps=WGS84 +datum=WGS84 +units=m +no_defs"/>

    <edge id="-1063354121" from="9767801406" to="9767801405" priority="1" type="highway.service" numLanes="1" speed="5.56" allow="pedestrian delivery bicycle"/>
    <edge id="-1063354122" from="9767801408" to="9767801405" priority="3" type="highway.residential" numLanes="1" speed="13.89" shape="262.41,485.45 208.71,473.39 148.06,471.87" disallow="tram rail_urban rail rail_electric rail_fast ship container cable_car subway aircraft wheelchair scooter drone"/>
    <edge id="-1063354123#0" from="9907507632" to="9767801410" priority="3" type="highway.residential" numLanes="1" speed="13.89" disallow="tram rail_urban rail rail_electric rail_fast ship container cable_car subway aircraft wheelchair scooter drone"/>
    <edge id="-1063354123#1" from="9767801405" to="9907507632" priority="3" type="highway.residential" numLanes="1" speed="13.89" shape="148.06,471.87 144.99,428.95 144.95,425.11" disallow="tram rail_urban rail rail_electric rail_fast ship container cable_car subway aircraft wheelchair scooter drone"/>
    <edge id="-1063354124" from="3151222095" to="9767801410" priority="1" type="highway.service" numLanes="1" speed="5.56" shape="6.92,371.46 76.33,375.09 144.28,375.25" allow="pedestrian delivery bicycle"/>
    <edge id="-1063354125#0" from="9907507631" to="9767801410" priority="3" type="highway.residential" numLanes="1" speed="13.89" shape="145.99,345.42 145.98,369.62 144.28,375.25" disallow="tram rail_urban rail rail_electric rail_fast ship container cable_car subway aircraft wheelchair scooter drone"/>
    <edge id="-1063354125#1" from="9907507627" to="9907507631" priority="3" type="highway.residential" numLanes="1" speed="13.89" disallow="tram rail_urban rail rail_electric rail_fast ship container cable_car subway aircraft wheelchair scooter drone"/>
    <edge id="-1063354125#2" from="9767801414" to="9907507627" priority="3" type="highway.residential" numLanes="1" speed="13.89" disallow="tram rail_urban rail rail_electric rail_fast ship container cable_car subway aircraft wheelchair scooter drone"/>
    <edge id="-1080933907#0" from="9907507282" to="3151265069" priority="1" type="highway.service" numLanes="1" speed="5.56" shape="516.18,333.75 494.15,338.99 480.08,348.28" allow="pedestrian delivery bicycle"/>
    <edge id="-1080933907#1" from="9907507283" to="9907507282" priority="1" type="highway.service" numLanes="1" speed="5.56" allow="pedestrian delivery bicycle"/>
    <edge id="-1080933908" from="3151265073" to="9907507282" priority="1" type="highway.service" numLanes="1" speed="5.56" shape="506.32,398.41 522.71,346.52 516.18,333.75" allow="pedestrian delivery bicycle"/>
    <edge id="-1080933910#0" from="11336037223" to="3150779078" priority="1" type="highway.service" numLanes="1" speed="5.56" allow="pedestrian delivery bicycle"/>
    <edge id="-1080933910#1" from="9907507288" to="11336037223" priority="1" type="highway.service" numLanes="1" speed="5.56" shape="659.72,518.53 656.55,481.34 586.25,487.05 583.10,429.64" allow="pedestrian delivery bicycle"/>
    <edge id="-1080933910#2" from="9907507290" to="9907507288" priority="1" type="highway.service" numLanes="1" speed="5.56" shape="684.31,525.62 683.73,516.75 659.72,518.53" allow="pedestrian delivery bicycle"/>
    <edge id="-1080933910#3" from="9907507295" to="9907507290" priority="1" type="highway.service" numLanes="1" speed="5.56" allow="pedestrian delivery bicycle"/>
    <edge id="-1080933910#4" from="9907507293" to="9907507295" priority="1" type="highway.service" numLanes="1" speed="5.56" allow="pedestrian delivery bicycle"/>
    <edge id="-1080933910#5" from="9907507291" to="9907507293" priority="1" type="highway.service" numLanes="1" speed="5.56" allow="pedestrian delivery bicycle"/>
    <edge id="-1080933912" from="9907507294" to="9907507293" priority="1" type="highway.service" numLanes="1" speed="5.56" allow="pedestrian delivery bicycle"/>
    <edge id="-1080933913" from="9907507288" to="9907507295" priority="1" type="highway.service" numLanes="1" speed="5.56" allow="pedestrian delivery bicycle"/>
    <edge id="-1080933914" from="9907507290" to="2696640125" priority="1" type="highway.service" numLanes="1" speed="5.56" shape="684.31,525.62 715.13,519.93 767.76,536.24 788.29,542.20" allow="pedestrian delivery bicycle"/>
    <edge id="-1080933919#0" from="11329199252" to="2696640125" priority="1" type="highway.service" numLanes="1" speed="5.56" allow="pedestrian delivery bicycle"/>
    <edge id="-1080933919#1" from="9907507623" to="11329199252" priority="1" type="highway.service" numLanes="1" speed="5.56" shape="898.88,553.28 875.69,550.89 795.04,542.83 793.56,542.75" allow="pedestrian delivery bicycle"/>
    <edge id="-1080933920#0" from="9907507625" to="9907507624" priority="1" type="highway.service" numLanes="1" speed="5.56" allow="pedestrian delivery bicycle"/>
    <edge id="-1080933920#1" from="9907507627" to="9907507625" priority="1" type="highway.service" numLanes="1" speed="5.56" shape="146.04,258.23 150.17,257.73 222.21,258.58" allow="pedestrian delivery bicycle"/>
    <edge id="-1080933921" from="9907507631" to="9907507625" priority="1" type="highway.service" numLanes="1" speed="5.56" shape="145.99,345.42 212.21,345.73 213.00,327.70 220.63,323.81 222.21,258.58" allow="pedestrian delivery bicycle"/>
    <edge id="-1080933922" from="2696640091" to="9907507632" priority="3" type="highway.residential" numLanes="1" speed="13.89" shape="330.30,383.97 237.44,376.34 233.25,420.50 144.95,425.11" disallow="tram rail_urban rail rail_electric rail_fast ship container cable_car subway aircraft wheelchair scooter drone"/>
    <edge id="-1221528032#0" from="11330459341" to="11329200881" priority="1" type="highway.service" numLanes="1" speed="5.56" allow="pedestrian delivery bicycle"/>
    <edge id="-1221528032#1" from="11329199173" to="11330459341" priority="1" type="highway.service" numLanes="1" speed="5.56" allow="pedestrian delivery bicycle"/>
    <edge id="-1221528043#0" from="11329199185" to="11329199230" priority="1" type="highway.service" numLanes="1" speed="5.56" allow="pedestrian delivery bicycle"/>
    <edge id="-1221528043#1" from="11329199222" to="11329199185" priority="1" type="highway.service" numLanes="1" speed="5.56" shape="824.30,125.45 893.67,183.61 812.89,278.59 807.41,283.98" allow="pedestrian delivery bicycle"/>
    <edge id="-1221674002#0" from="11330427515" to="11330427519" priority="1" type="highway.service" numLanes="1" speed="5.56" shape="663.34,245.69 660.97,248.12 657.93,249.51 655.37,249.78" allow="pedestrian delivery bicycle"/>
    <edge id="-1221674002#1" from="11330427520" to="11330427515" priority="1" type="highway.service" numLanes="1" speed="5.56" shape="654.23,231.65 658.09,231.86 661.35,233.49 663.27,235.54 664.50,238.13 664.76,241.98 663.34,245.69" allow="pedestrian delivery bicycle"/>
    <edge id="-1221674002#2" from="11330679693" to="11330427520" priority="1" type="highway.service" numLanes="1" speed="5.56" allow="pedestrian delivery bicycle"/>
    <edge id="-1221674005#0" from="11330427519" to="11330679689" priority="1" type="highway.service" numLanes="1" speed="5.56" shape="655.37,249.78 652.91,249.36 650.53,248.20 648.48,246.31 637.94,227.87 634.95,222.33" allow="pedestrian delivery bicycle"/>
    <edge id="-1221674007" from="11330427520" to="11330427525" priority="1" type="highway.service" numLanes="1" speed="5.56" shape="654.23,231.65 654.03,227.72 653.75,222.36" allow="pedestrian delivery bicycle"/>
    <edge id="-1221706344" from="11330679685" to="11330679686" priority="1" type="highway.service" numLanes="1" speed="5.56" allow="pedestrian delivery bicycle"/>
    <edge id="-1221809488#0" from="11336037226" to="11331527326" priority="3" type="highway.residential" numLanes="1" speed="13.89" disallow="tram rail_urban rail rail_electric rail_fast ship container cable_car subway aircraft wheelchair scooter drone"/>
    <edge id="-1221809488#1" from="3150779095" to="11336037226" priority="3" type="highway.residential" numLanes="1" speed="13.89" disallow="tram rail_urban rail rail_electric rail_fast ship container cable_car subway aircraft wheelchair scooter drone"/>
    <edge id="-1221809512" from="11331527319" to="11329199240" priority="1" type="highway.service" numLanes="1" speed="5.56" shape="783.81,391.73 807.41,400.89 816.78,404.53" allow="pedestrian delivery bicycle"/>
    <edge id="-1221809513" from="11331527345" to="11330427519" priority="1" type="highway.service" numLanes="1" speed="5.56" shape="667.55,283.27 657.57,285.78 655.37,249.78" allow="pedestrian delivery bicycle"/>
    <edge id="-1222039186#0" from="11333377424" to="3151265684" priority="1" type="highway.service" numLanes="1" speed="5.56" allow="pedestrian delivery bicycle"/>
    <edge id="-1222039186#1" from="11333377408" to="11333377424" priority="1" type="highway.service" numLanes="1" speed="5.56" shape="321.57,282.03 312.03,283.62 311.24,307.82 321.36,306.08" allow="pedestrian delivery bicycle"/>
    <edge id="-1222039186#2" from="11333377431" to="11333377408" priority="1" type="highway.service" numLanes="1" speed="5.56" allow="pedestrian delivery bicycle"/>
    <edge id="-1222039189" from="11333377408" to="11333377424" priority="1" type="highway.service" numLanes="1" speed="5.56" allow="pedestrian delivery bicycle"/>
    <edge id="-1222039192" from="11333377391" to="11333377416" priority="1" type="highway.service" numLanes="1" speed="5.56" allow="pedestrian delivery bicycle"/>
    <edge id="-1222039193" from="11333377444" to="11333377410" priority="1" type="highway.service" numLanes="1" speed="5.56" allow="pedestrian delivery bicycle"/>
    <edge id="-1222250481" from="11335853719" to="11335853716" priority="1" type="highway.service" numLanes="1" speed="5.56" shape="289.62,409.32 308.77,410.24 312.82,410.43" allow="pedestrian delivery bicycle"/>
    <edge id="-1222250482" from="11335853732" to="11335853734" priority="1" type="highway.service" numLanes="1" speed="5.56" shape="591.48,327.37 580.45,294.24 572.40,264.23 569.48,244.75 568.82,228.12 568.58,222.21" allow="pedestrian delivery bicycle"/>
    <edge id="-1222250484" from="11335853721" to="11335853723" priority="1" type="highway.service" numLanes="1" speed="5.56" shape="324.00,461.85 321.68,443.98 316.33,434.39 307.44,418.44" allow="pedestrian delivery bicycle"/>
    <edge id="-1222260260#0" from="11335912065" to="11335912063" priority="1" type="highway.service" numLanes="1" speed="5.56" allow="pedestrian delivery bicycle"/>
    <edge id="-1222260260#1" from="11335985069" to="11335912065" priority="1" type="highway.service" numLanes="1" speed="5.56" shape="465.22,518.52 461.40,516.42 457.14,517.73" allow="pedestrian delivery bicycle"/>
    <edge id="-1222260260#2" from="11335976540" to="11335985069" priority="1" type="highway.service" numLanes="1" speed="5.56" allow="pedestrian delivery bicycle"/>
    <edge id="-1222260260#3" from="11335912068" to="11335976540" priority="1" type="highway.service" numLanes="1" speed="5.56" allow="pedestrian delivery bicycle"/>
    <edge id="-1222260261#0" from="9907507294" to="11335976533" priority="1" type="highway.service" numLanes="1" speed="5.56" allow="pedestrian delivery bicycle"/>
    <edge id="-1222260261#1" from="9907507288" to="9907507294" priority="1" type="highway.service" numLanes="1" speed="5.56" allow="pedestrian delivery bicycle"/>
    <edge id="-1222268016" from="11336057780" to="11336057778" priority="1" type="highway.service" numLanes="1" speed="5.56" shape="557.38,364.02 539.98,370.81 529.41,375.57 523.08,380.55 515.73,388.01 508.35,399.14" allow="pedestrian delivery bicycle"/>
    <edge id="-1222271070" from="11336077262" to="3150779097" priority="1" type="highway.service" numLanes="1" speed="5.56" shape="762.99,443.28 761.09,453.30 759.16,463.54" allow="pedestrian delivery bicycle"/>
    <edge id="-1222271072#0" from="3150779078" to="11336077265" priority="3" type="highway.residential" numLanes="1" speed="13.89" disallow="tram rail_urban rail rail_electric rail_fast ship container cable_car subway aircraft wheelchair scooter drone"/>
    <edge id="-1222271072#1" from="3150779097" to="3150779078" priority="3" type="highway.residential" numLanes="1" speed="13.89" shape="759.16,463.54 744.74,459.57 725.14,454.95 705.52,451.36 690.02,448.90 678.32,446.78 666.78,444.70 646.17,439.03 621.94,433.24 603.39,428.14 582.76,423.49" disallow="tram rail_urban rail rail_electric rail_fast ship container cable_car subway aircraft wheelchair scooter drone"/>
    <edge id="-1222271072#2" from="3150779095" to="3150779097" priority="3" type="highway.residential" numLanes="1" speed="13.89" disallow="tram rail_urban rail rail_electric rail_fast ship container cable_car subway aircraft wheelchair scooter drone"/>
    <edge id="-1222271073" from="3150780484" to="3150779095" priority="3" type="highway.residential" numLanes="1" speed="13.89" disallow="tram rail_urban rail rail_electric rail_fast ship container cable_car subway aircraft wheelchair scooter drone"/>
    <edge id="-263985317#0" from="11333377384" to="11335903024" priority="3" type="highway.residential" numLanes="1" speed="13.89" shape="254.41,496.82 238.64,519.77 221.66,548.71 193.83,589.99 188.57,598.60 186.06,602.64" disallow="tram rail_urban rail rail_electric rail_fast ship container cable_car subway aircraft wheelchair scooter drone"/>
    <edge id="-263985317#1" from="9767801408" to="11333377384" priority="3" type="highway.residential" numLanes="1" speed="13.89" disallow="tram rail_urban rail rail_electric rail_fast ship container cable_car subway aircraft wheelchair scooter drone"/>
    <edge id="-263985317#10" from="11333377416" to="11333377410" priority="3" type="highway.residential" numLanes="1" speed="13.89" disallow="tram rail_urban rail rail_electric rail_fast ship container cable_car subway aircraft wheelchair scooter drone"/>
    <edge id="-263985317#11" from="11333377411" to="11333377416" priority="3" type="highway.residential" numLanes="1" speed="13.89" disallow="tram rail_urban rail rail_electric rail_fast ship container cable_car subway aircraft wheelchair scooter drone"/>
    <edge id="-263985317#12" from="3150655661" to="11333377411" priority="3" type="highway.residential" numLanes="1" speed="13.89" disallow="tram rail_urban rail rail_electric rail_fast ship container cable_car subway aircraft wheelchair scooter drone"/>
    <edge id="-263985317#2" from="11335853729" to="9767801408" priority="3" type="highway.residential" numLanes="1" speed="13.89" disallow="tram rail_urban rail rail_electric rail_fast ship container cable_car subway aircraft wheelchair scooter drone"/>
    <edge id="-263985317#3" from="11335853723" to="11335853729" priority="3" type="highway.residential" numLanes="1" speed="13.89" disallow="tram rail_urban rail rail_electric rail_fast ship container cable_car subway aircraft wheelchair scooter drone"/>
    <edge id="-263985317#4" from="11335853716" to="11335853723" priority="3" type="highway.residential" numLanes="1" speed="13.89" disallow="tram rail_urban rail rail_electric rail_fast ship container cable_car subway aircraft wheelchair scooter drone"/>
    <edge id="-263985317#5" from="2696640089" to="11335853716" priority="3" type="highway.residential" numLanes="1" speed="13.89" disallow="tram rail_urban rail rail_electric rail_fast ship container cable_car subway aircraft wheelchair scooter drone"/>
    <edge id="-263985317#6" from="2696640091" to="2696640089" priority="3" type="highway.residential" numLanes="1" speed="13.89" disallow="tram rail_urban rail rail_electric rail_fast ship container cable_car subway aircraft wheelchair scooter drone"/>
    <edge id="-263985317#7" from="3151265684" to="2696640091" priority="3" type="highway.residential" numLanes="1" speed="13.89" shape="335.12,305.34 332.65,368.95 332.15,375.87 330.30,383.97" disallow="tram rail_urban rail rail_electric rail_fast ship container cable_car subway aircraft wheelchair scooter drone"/>
    <edge id="-263985317#8" from="11333377431" to="3151265684" priority="3" type="highway.residential" numLanes="1" speed="13.89" disallow="tram rail_urban rail rail_electric rail_fast ship container cable_car subway aircraft wheelchair scooter drone"/>
    <edge id="-263985317#9" from="11333377410" to="11333377431" priority="3" type="highway.residential" numLanes="1" speed="13.89" disallow="tram rail_urban rail rail_electric rail_fast ship container cable_car subway aircraft wheelchair scooter drone"/>
    <edge id="-263985319#0" from="2696640241" to="2696640111" priority="3" type="highway.residential" numLanes="1" speed="13.89" shape="478.07,105.18 477.99,102.12 475.26,0.00" disallow="tram rail_urban rail rail_electric rail_fast ship container cable_car subway aircraft wheelchair scooter drone"/>
    <edge id="-263985319#1" from="2696640112" to="2696640241" priority="3" type="highway.residential" numLanes="1" speed="13.89" disallow="tram rail_urban rail rail_electric rail_fast ship container cable_car subway aircraft wheelchair scooter drone"/>
    <edge id="-263985321#0" from="11329199260" to="2696640120" priority="3" type="highway.residential" numLanes="1" speed="13.89" disallow="tram rail_urban rail rail_electric rail_fast ship container cable_car subway aircraft wheelchair scooter drone"/>
    <edge id="-263985321#1" from="2696640123" to="11329199260" priority="3" type="highway.residential" numLanes="1" speed="13.89" disallow="tram rail_urban rail rail_electric rail_fast ship container cable_car subway aircraft wheelchair scooter drone"/>
    <edge id="-263985322#0" from="11331527326" to="2696640123" priority="3" type="highway.residential" numLanes="1" speed="8.33" disallow="tram rail_urban rail rail_electric rail_fast ship container cable_car subway aircraft wheelchair scooter drone"/>
    <edge id="-263985322#1" from="3150780484" to="11331527326" priority="3" type="highway.residential" numLanes="1" speed="8.33" disallow="tram rail_urban rail rail_electric rail_fast ship container cable_car subway aircraft wheelchair scooter drone"/>
    <edge id="-263985322#2" from="2696640125" to="3150780484" priority="3" type="highway.residential" numLanes="1" speed="8.33" disallow="tram rail_urban rail rail_electric rail_fast ship container cable_car subway aircraft wheelchair scooter drone"/>
    <edge id="-263985322#3" from="5496019088" to="2696640125" priority="3" type="highway.residential" numLanes="1" speed="8.33" shape="740.66,816.65 712.82,791.72 741.76,696.16 750.16,668.40 750.90,665.95 765.99,616.17 770.99,599.64 783.72,557.59 788.29,542.20" disallow="tram rail_urban rail rail_electric rail_fast ship container cable_car subway aircraft wheelchair scooter drone"/>
    <edge id="-263985325#0" from="11335912063" to="2696640159" priority="3" type="highway.residential" numLanes="1" speed="13.89" shape="448.05,518.12 450.75,695.00 450.84,701.31 450.95,708.21" disallow="tram rail_urban rail rail_electric rail_fast ship container cable_car subway aircraft wheelchair scooter drone"/>
    <edge id="-263985325#1" from="2696640170" to="11335912063" priority="3" type="highway.residential" numLanes="1" speed="13.89" disallow="tram rail_urban rail rail_electric rail_fast ship container cable_car subway aircraft wheelchair scooter drone"/>
    <edge id="-263985338#0" from="3151341417" to="2696640231" priority="1" type="highway.service" numLanes="1" speed="5.56" shape="187.41,187.82 181.63,41.59 220.98,38.50" allow="pedestrian delivery bicycle"/>
    <edge id="-263985338#1" from="2696640233" to="3151341417" priority="1" type="highway.service" numLanes="1" speed="5.56" allow="pedestrian delivery bicycle"/>
    <edge id="-263985342#0" from="2932867527" to="2696640241" priority="3" type="highway.residential" numLanes="1" speed="13.89" disallow="tram rail_urban rail rail_electric rail_fast ship container cable_car subway aircraft wheelchair scooter drone"/>
    <edge id="-263985342#1" from="11329200881" to="2932867527" priority="3" type="highway.residential" numLanes="1" speed="13.89" shape="794.98,185.54 794.85,178.05 795.15,166.27 795.26,160.59 795.08,158.43 794.33,149.01 792.14,132.99 789.66,111.07 787.70,96.58 774.96,97.81 637.66,100.52 579.02,103.34" disallow="tram rail_urban rail rail_electric rail_fast ship container cable_car subway aircraft wheelchair scooter drone"/>
    <edge id="-263985342#2" from="2696640252" to="11329200881" priority="3" type="highway.residential" numLanes="1" speed="13.89" shape="763.72,254.52 775.90,239.93 776.29,239.15 789.67,213.79 794.94,188.59 794.98,185.54" disallow="tram rail_urban rail rail_electric rail_fast ship container cable_car subway aircraft wheelchair scooter drone"/>
    <edge id="-263985343#0" from="2932867527" to="2696640253" priority="3" type="highway.residential" numLanes="1" speed="13.89" disallow="tram rail_urban rail rail_electric rail_fast ship container cable_car subway aircraft wheelchair scooter drone"/>
    <edge id="-263985343#1" from="2696640254" to="2932867527" priority="3" type="highway.residential" numLanes="1" speed="13.89" shape="575.90,36.83 577.16,61.59 579.02,103.34" disallow="tram rail_urban rail rail_electric rail_fast ship container cable_car subway aircraft wheelchair scooter drone"/>
    <edge id="-309731029#0" from="3151340939" to="3150625372" priority="10" type="highway.tertiary" numLanes="1" speed="11.11" disallow="tram rail_urban rail rail_electric rail_fast ship container cable_car subway aircraft wheelchair scooter drone"/>
    <edge id="-309731029#1" from="3151341415" to="3151340939" priority="10" type="highway.tertiary" numLanes="1" speed="11.11" disallow="tram rail_urban rail rail_electric rail_fast ship container cable_car subway aircraft wheelchair scooter drone"/>
    <edge id="-309731029#2" from="9907507624" to="3151341415" priority="10" type="highway.tertiary" numLanes="1" speed="11.11" disallow="tram rail_urban rail rail_electric rail_fast ship container cable_car subway aircraft wheelchair scooter drone"/>
    <edge id="-309731029#3" from="2696640233" to="9907507624" priority="10" type="highway.tertiary" numLanes="1" speed="11.11" disallow="tram rail_urban rail rail_electric rail_fast ship container cable_car subway aircraft wheelchair scooter drone"/>
    <edge id="-309731029#4" from="9767801414" to="2696640233" priority="10" type="highway.tertiary" numLanes="1" speed="11.11" disallow="tram rail_urban rail rail_electric rail_fast ship container cable_car subway aircraft wheelchair scooter drone"/>
    <edge id="-309731029#5" from="3150625362" to="9767801414" priority="10" type="highway.tertiary" numLanes="1" speed="11.11" shape="63.78,227.80 88.34,224.62 138.76,220.79 146.07,221.47" disallow="tram rail_urban rail rail_electric rail_fast ship container cable_car subway aircraft wheelchair scooter drone"/>
    <edge id="-309731323#0" from="3151276099" to="3150629379" priority="10" type="highway.tertiary" numLanes="1" speed="5.56" disallow="tram rail_urban rail rail_electric rail_fast ship container cable_car subway aircraft wheelchair scooter drone"/>
    <edge id="-309731323#1" from="2696640112" to="3151276099" priority="10" type="highway.tertiary" numLanes="1" speed="5.56" shape="480.73,221.78 406.54,217.12 378.41,218.36" disallow="tram rail_urban rail rail_electric rail_fast ship container cable_car subway aircraft wheelchair scooter drone"/>
    <edge id="-309731323#10" from="2696640252" to="11330459337" priority="10" type="highway.tertiary" numLanes="1" speed="5.56" disallow="tram rail_urban rail rail_electric rail_fast ship container cable_car subway aircraft wheelchair scooter drone"/>
    <edge id="-309731323#11" from="11329199230" to="2696640252" priority="10" type="highway.tertiary" numLanes="1" speed="5.56" shape="805.13,287.17 803.20,286.42 763.72,254.52" disallow="tram rail_urban rail rail_electric rail_fast ship container cable_car subway aircraft wheelchair scooter drone"/>
    <edge id="-309731323#12" from="11329200869" to="11329199230" priority="10" type="highway.tertiary" numLanes="1" speed="5.56" disallow="tram rail_urban rail rail_electric rail_fast ship container cable_car subway aircraft wheelchair scooter drone"/>
    <edge id="-309731323#13" from="3150629367" to="11329200869" priority="10" type="highway.tertiary" numLanes="1" speed="5.56" disallow="tram rail_urban rail rail_electric rail_fast ship container cable_car subway aircraft wheelchair scooter drone"/>
    <edge id="-309731323#2" from="11335853718" to="2696640112" priority="10" type="highway.tertiary" numLanes="1" speed="5.56" disallow="tram rail_urban rail rail_electric rail_fast ship container cable_car subway aircraft wheelchair scooter drone"/>
    <edge id="-309731323#3" from="9907507283" to="11335853718" priority="10" type="highway.tertiary" numLanes="1" speed="5.56" disallow="tram rail_urban rail rail_electric rail_fast ship container cable_car subway aircraft wheelchair scooter drone"/>
    <edge id="-309731323#4" from="11335853734" to="9907507283" priority="10" type="highway.tertiary" numLanes="1" speed="5.56" disallow="tram rail_urban rail rail_electric rail_fast ship container cable_car subway aircraft wheelchair scooter drone"/>
    <edge id="-309731323#5" from="2696640253" to="11335853734" priority="10" type="highway.tertiary" numLanes="1" speed="5.56" disallow="tram rail_urban rail rail_electric rail_fast ship container cable_car subway aircraft wheelchair scooter drone"/>
    <edge id="-309731323#6" from="11330679689" to="2696640253" priority="10" type="highway.tertiary" numLanes="1" speed="5.56" disallow="tram rail_urban rail rail_electric rail_fast ship container cable_car subway aircraft wheelchair scooter drone"/>
    <edge id="-309731323#7" from="11330679686" to="11330679689" priority="10" type="highway.tertiary" numLanes="1" speed="5.56" disallow="tram rail_urban rail rail_electric rail_fast ship container cable_car subway aircraft wheelchair scooter drone"/>
    <edge id="-309731323#8" from="11330427525" to="11330679686" priority="10" type="highway.tertiary" numLanes="1" speed="5.56" disallow="tram rail_urban rail rail_electric rail_fast ship container cable_car subway aircraft wheelchair scooter drone"/>
    <edge id="-309731323#9" from="11330459337" to="11330427525" priority="10" type="highway.tertiary" numLanes="1" speed="5.56" shape="762.75,253.85 724.89,228.26 719.98,226.12 714.18,225.02 702.31,223.41 676.81,222.39 653.75,222.36" disallow="tram rail_urban rail rail_electric rail_fast ship container cable_car subway aircraft wheelchair scooter drone"/>
    <edge id="-309733383" from="2696640099" to="3150655662" priority="3" type="highway.residential" numLanes="1" speed="13.89" shape="343.34,9.58 334.92,14.53 326.37,24.64 324.08,32.84 325.79,75.03 327.32,112.84 332.36,193.77" disallow="tram rail_urban rail rail_electric rail_fast ship container cable_car subway aircraft wheelchair scooter drone"/>
    <edge id="-309745676#0" from="3150779096" to="2696640091" priority="1" type="highway.service" numLanes="1" speed="5.56" shape="379.35,384.81 357.56,384.78 330.30,383.97" allow="pedestrian delivery bicycle"/>
    <edge id="-309745676#1" from="3150779090" to="3150779096" priority="1" type="highway.service" numLanes="1" speed="5.56" shape="449.35,386.06 421.40,383.29 398.55,384.78 379.35,384.81" allow="pedestrian delivery bicycle"/>
    <edge id="-309745676#2" from="3151265073" to="3150779090" priority="1" type="highway.service" numLanes="1" speed="5.56" shape="506.32,398.41 496.85,395.00 474.69,388.76 449.35,386.06" allow="pedestrian delivery bicycle"/>
    <edge id="-309745676#3" from="11336057778" to="3151265073" priority="1" type="highway.service" numLanes="1" speed="5.56" allow="pedestrian delivery bicycle"/>
    <edge id="-309745676#4" from="3151297655" to="11336057778" priority="1" type="highway.service" numLanes="1" speed="5.56" allow="pedestrian delivery bicycle"/>
    <edge id="-309745676#5" from="11336077265" to="3151297655" priority="1" type="highway.service" numLanes="1" speed="5.56" shape="577.12,422.25 564.18,419.41 549.23,415.93 533.80,410.39 519.98,403.32 513.42,400.96" allow="pedestrian delivery bicycle"/>
    <edge id="-309780958#0" from="3151265069" to="3151260037" priority="1" type="highway.service" numLanes="1" speed="5.56" shape="480.08,348.28 462.90,343.20 450.61,344.95" allow="pedestrian delivery bicycle"/>
    <edge id="-309780958#1" from="3151265073" to="3151265069" priority="1" type="highway.service" numLanes="1" speed="5.56" shape="506.32,398.41 502.43,381.77 498.80,367.33 490.73,358.35 480.08,348.28" allow="pedestrian delivery bicycle"/>
    <edge id="-309781054#0" from="3151265680" to="3151260025" priority="1" type="highway.service" numLanes="1" speed="5.56" shape="378.60,341.05 394.93,344.17 407.22,357.79" allow="pedestrian delivery bicycle"/>